
 OpenBabel04082419543D

 31 30  0  0  1  0  0  0  0  0999 V2000
    9.1700   26.2510    6.5160 C   0  0  2  0  0  3  0  0  0  0  0  0
   10.0080   25.0660    6.1210 C   0  0  0  0  0  0  0  0  0  0  0  0
   10.1880   24.2080    7.0140 O   0  0  0  0  0  0  0  0  0  0  0  0
   10.5640   24.9070    4.8430 N   0  0  0  0  0  0  0  0  0  0  0  0
   10.3570   25.6490    4.1750 H   0  0  0  0  0  0  0  0  0  0  0  0
   11.3770   23.8490    4.3590 C   0  0  2  0  0  3  0  0  0  0  0  0
   12.8230   24.0550    4.3900 C   0  0  0  0  0  0  0  0  0  0  0  0
   13.3970   25.1540    4.4460 O   0  0  0  0  0  1  0  0  0  0  0  0
   13.6320   22.9130    4.3530 O   0  0  0  0  0  0  0  0  0  0  0  0
   10.9850   23.2750    3.0100 C   0  0  0  0  0  2  0  0  0  0  0  0
    9.6590   22.6080    2.9750 C   0  0  0  0  0  3  0  0  0  0  0  0
    9.6420   21.5280    1.8660 C   0  0  0  0  0  1  0  0  0  0  0  0
    8.6540   23.6570    2.4770 C   0  0  0  0  0  1  0  0  0  0  0  0
    9.1640   26.2680    8.0320 C   0  0  0  0  0  2  0  0  0  0  0  0
    8.5430   27.5050    8.5630 C   0  0  0  0  0  0  0  0  0  0  0  0
    7.8060   27.5500    9.5650 O   0  0  0  0  0  1  0  0  0  0  0  0
    8.8100   28.6860    7.8860 O   0  0  0  0  0  0  0  0  0  0  0  0
    7.8450   26.1780    5.9850 N   0  0  0  0  0  0  0  0  0  0  0  0
    7.4850   26.8940    4.7860 C   0  0  0  0  0  0  0  0  0  0  0  0
    8.3440   27.7480    4.4150 O   0  0  0  0  0  0  0  0  0  0  0  0
    7.1430   25.6100    6.4610 H   0  0  0  0  0  0  0  0  0  0  0  0
    6.2250   26.6540    4.0550 C   0  0  2  0  0  3  0  0  0  0  0  0
    6.2330   27.1440    2.6320 C   0  0  0  0  0  2  0  0  0  0  0  0
    5.0840   26.5110    1.8870 C   0  0  0  0  0  2  0  0  0  0  0  0
    5.3160   26.6900    0.4380 C   0  0  0  0  0  0  0  0  0  0  0  0
    6.5710   26.9790   -0.0500 O   0  0  0  0  0  1  0  0  0  0  0  0
    4.3620   26.5790   -0.3630 O   0  0  0  0  0  0  0  0  0  0  0  0
    5.1950   27.5160    4.7200 N   0  0  0  0  0  4  0  0  0  0  0  0
    5.1190   27.3600    5.7250 H   0  0  0  0  0  0  0  0  0  0  0  0
    5.4570   28.5020    4.7690 H   0  0  0  0  0  0  0  0  0  0  0  0
    4.3250   27.3510    4.2150 H   0  0  0  0  0  0  0  0  0  0  0  0
  1 14  1  1  0  0  0
  2  1  1  0  0  0  0
  2  3  2  0  0  0  0
  4  2  1  0  0  0  0
  5  4  1  0  0  0  0
  6 10  1  6  0  0  0
  6  7  1  0  0  0  0
  6  4  1  0  0  0  0
  7  8  1  0  0  0  0
  9  7  2  0  0  0  0
 11 10  1  0  0  0  0
 12 11  1  0  0  0  0
 13 11  1  0  0  0  0
 14 15  1  0  0  0  0
 15 16  1  0  0  0  0
 17 15  2  0  0  0  0
 18 21  1  0  0  0  0
 18  1  1  0  0  0  0
 19 18  1  0  0  0  0
 20 19  2  0  0  0  0
 22 23  1  6  0  0  0
 22 28  1  0  0  0  0
 22 19  1  0  0  0  0
 24 23  1  0  0  0  0
 25 24  1  0  0  0  0
 26 25  1  0  0  0  0
 27 25  2  0  0  0  0
 28 30  1  0  0  0  0
 28 29  1  0  0  0  0
 31 28  1  0  0  0  0
M  END
>  <minimizedAffinity>
-5.7996521

>  <minimizedRMSD>
1.45486736

$$$$
