
 OpenBabel04082420003D

 17 19  0  0  1  0  0  0  0  0999 V2000
    9.0220   23.2850   49.3440 C   0  0  0  0  0  3  0  0  0  0  0  0
    9.6490   23.8690   48.2680 C   0  0  0  0  0  3  0  0  0  0  0  0
   10.6680   23.1350   47.6810 C   0  0  0  0  0  0  0  0  0  0  0  0
   11.0640   21.9040   48.1060 C   0  0  0  0  0  3  0  0  0  0  0  0
   10.4620   18.3280   51.2240 C   0  0  0  0  0  3  0  0  0  0  0  0
    9.8430   17.7400   52.2950 C   0  0  0  0  0  0  0  0  0  0  0  0
    8.8180   18.4270   52.9210 C   0  0  0  0  0  3  0  0  0  0  0  0
    8.4290   19.6720   52.4780 C   0  0  0  0  0  3  0  0  0  0  0  0
    8.7040   21.4930   50.9250 C   0  0  0  0  0  3  0  0  0  0  0  0
   10.7330   20.1380   49.6820 N   0  0  0  0  0  0  0  0  0  0  0  0
   11.4870   19.6200   49.2300 H   0  0  0  0  0  0  0  0  0  0  0  0
   10.3960   21.3550   49.2020 C   0  0  0  0  0  0  0  0  0  0  0  0
    9.0800   20.2470   51.3830 C   0  0  0  0  0  0  0  0  0  0  0  0
    9.3810   22.0260   49.8300 C   0  0  0  0  0  0  0  0  0  0  0  0
   10.1050   19.5870   50.7360 C   0  0  2  0  0  3  0  0  0  0  0  0
   11.3540   23.6940   46.5570 N   0  0  0  0  0  1  0  0  0  0  0  0
   10.2570   16.4550   52.7380 N   0  0  0  0  0  1  0  0  0  0  0  0
  1 14  1  0  0  0  0
  2  1  2  0  0  0  0
  3  4  2  0  0  0  0
  3  2  1  0  0  0  0
  4 12  1  0  0  0  0
  5  6  2  0  0  0  0
  6 17  1  0  0  0  0
  6  7  1  0  0  0  0
  8  7  2  0  0  0  0
  9 13  2  0  0  0  0
 10 15  1  0  0  0  0
 11 10  1  0  0  0  0
 12 10  1  0  0  0  0
 12 14  2  0  0  0  0
 13  8  1  0  0  0  0
 14  9  1  0  0  0  0
 15  5  1  1  0  0  0
 15 13  1  0  0  0  0
 16  3  1  0  0  0  0
M  END
>  <minimizedAffinity>
-6.03141499

>  <minimizedRMSD>
0.806759715

$$$$
