
 OpenBabel04082419553D

 10 10  0  0  0  0  0  0  0  0999 V2000
    8.6740    0.7210   25.1620 C   0  0  0  0  0  0  0  0  0  0  0  0
    8.4220    1.8510   25.9140 C   0  0  0  0  0  3  0  0  0  0  0  0
    8.9650    3.0840   25.6070 C   0  0  0  0  0  3  0  0  0  0  0  0
    9.7960    3.2350   24.5140 C   0  0  0  0  0  3  0  0  0  0  0  0
   10.0490    2.1070   23.7620 C   0  0  0  0  0  3  0  0  0  0  0  0
    9.5030    0.8740   24.0710 C   0  0  0  0  0  3  0  0  0  0  0  0
    8.0940   -0.5800   25.4950 C   0  0  0  0  0  0  0  0  0  0  0  0
    7.0510   -0.6600   26.4610 N   0  0  0  0  0  2  0  0  0  0  0  0
    8.4810   -1.6780   24.9540 N   0  0  0  0  0  2  0  0  0  0  0  0
    7.9580   -2.5800   25.0470 H   0  0  0  0  0  0  0  0  0  0  0  0
  1  7  1  0  0  0  0
  1  2  1  0  0  0  0
  3  2  2  0  0  0  0
  4  3  1  0  0  0  0
  5  6  1  0  0  0  0
  5  4  2  0  0  0  0
  6  1  2  0  0  0  0
  7  8  2  0  0  0  0
  9 10  1  0  0  0  0
  9  7  1  0  0  0  0
M  END
>  <minimizedAffinity>
-4.27086926

>  <minimizedRMSD>
0.476628304

$$$$
