
 OpenBabel04082420123D

 22 25  0  0  1  0  0  0  0  0999 V2000
    6.3440   69.8940   66.0890 N   0  0  0  0  0  0  0  0  0  0  0  0
    7.2090   69.9210   65.5470 H   0  0  0  0  0  0  0  0  0  0  0  0
    2.8130   69.7720   68.2620 N   0  0  0  0  0  1  0  0  0  0  0  0
    7.5420   71.1860   69.2720 C   0  0  0  0  0  0  0  0  0  0  0  0
    7.5440   70.7680   67.9600 C   0  0  0  0  0  3  0  0  0  0  0  0
    6.3890   70.3110   67.3620 C   0  0  2  0  0  3  0  0  0  0  0  0
    5.2340   69.4430   65.4760 C   0  0  0  0  0  0  0  0  0  0  0  0
    5.2900   69.0020   64.0540 C   0  0  0  0  0  2  0  0  0  0  0  0
    3.9660   68.9050   63.3910 C   0  0  1  0  0  3  0  0  0  0  0  0
    3.5210   67.4990   63.1660 C   0  0  0  0  0  2  0  0  0  0  0  0
    2.8100   66.8950   64.1050 C   0  0  1  0  0  3  0  0  0  0  0  0
    2.9310   67.4150   65.4930 C   0  0  0  0  0  2  0  0  0  0  0  0
    2.8410   68.9170   65.5560 C   0  0  2  0  0  3  0  0  0  0  0  0
    2.8300   69.5640   64.1740 C   0  0  0  0  0  2  0  0  0  0  0  0
    4.0750   69.4100   66.2130 C   0  0  0  0  0  0  0  0  0  0  0  0
    4.0390   69.8190   67.5210 C   0  0  0  0  0  0  0  0  0  0  0  0
    5.2070   70.2700   68.0910 C   0  0  0  0  0  0  0  0  0  0  0  0
    5.2250   70.6920   69.4020 C   0  0  0  0  0  3  0  0  0  0  0  0
    6.3670   71.1560   70.0270 C   0  0  0  0  0  3  0  0  0  0  0  0
    8.9940   71.7770   70.0740 Cl  0  0  0  0  0  0  0  0  0  0  0  0
    1.9100   65.7460   63.8600 C   0  0  0  0  0  2  0  0  0  0  0  0
    2.4260   64.4650   64.4230 C   0  0  0  0  0  1  0  0  0  0  0  0
  1  6  1  0  0  0  0
  2  1  1  0  0  0  0
  4 19  1  0  0  0  0
  4 20  1  0  0  0  0
  5  4  2  0  0  0  0
  6  5  1  1  0  0  0
  6 17  1  0  0  0  0
  7  1  1  0  0  0  0
  7 15  2  0  0  0  0
  8  7  1  0  0  0  0
  9 10  1  1  0  0  0
  9  8  1  0  0  0  0
  9 14  1  0  0  0  0
 10 11  1  0  0  0  0
 11 21  1  6  0  0  0
 11 12  1  0  0  0  0
 12 13  1  0  0  0  0
 13 14  1  6  0  0  0
 13 15  1  0  0  0  0
 15 16  1  0  0  0  0
 16 17  2  0  0  0  0
 16  3  1  0  0  0  0
 17 18  1  0  0  0  0
 18 19  2  0  0  0  0
 21 22  1  0  0  0  0
M  END
>  <minimizedAffinity>
-8.43689823

>  <minimizedRMSD>
1.1935848

$$$$
