
 OpenBabel04082420093D

 54 59  0  0  1  0  0  0  0  0999 V2000
   14.3510   23.7270    5.4170 C   0  0  1  0  0  3  0  0  0  0  0  0
   15.3720   22.9990    6.2130 C   0  0  1  0  0  3  0  0  0  0  0  0
   15.2700   23.3510    7.5630 O   0  0  0  0  0  0  0  0  0  0  0  0
   16.2930   23.3790    8.3800 C   0  0  0  0  0  2  0  0  0  0  0  0
   16.6070   22.0610    8.9850 C   0  0  0  0  0  0  0  0  0  0  0  0
   15.6280   21.3760    9.6790 C   0  0  0  0  0  3  0  0  0  0  0  0
   15.8660   20.1270   10.2030 C   0  0  0  0  0  3  0  0  0  0  0  0
   17.0860   19.5190   10.0520 C   0  0  0  0  0  3  0  0  0  0  0  0
   18.0730   20.2100    9.3520 C   0  0  0  0  0  3  0  0  0  0  0  0
   17.8270   21.4660    8.8290 C   0  0  0  0  0  3  0  0  0  0  0  0
   15.4370   21.5220    6.0970 C   0  0  0  0  0  0  0  0  0  0  0  0
   14.3680   20.8700    6.3710 O   0  0  0  0  0  0  0  0  0  0  0  0
   16.4900   20.6910    5.7350 N   0  0  0  0  0  0  0  0  0  0  0  0
   17.3660   21.2020    5.6230 H   0  0  0  0  0  0  0  0  0  0  0  0
   16.6380   19.3300    5.4880 C   0  0  1  0  0  3  0  0  0  0  0  0
   16.1810   19.0160    4.0650 C   0  0  0  0  0  0  0  0  0  0  0  0
   17.3200   18.9630    3.2900 C   0  0  0  0  0  0  0  0  0  0  0  0
   14.9630   18.7820    3.4780 C   0  0  0  0  0  3  0  0  0  0  0  0
   17.2030   18.6800    1.9450 C   0  0  0  0  0  3  0  0  0  0  0  0
   18.5230   19.1860    4.1450 C   0  0  0  0  0  2  0  0  0  0  0  0
   15.9490   18.4470    1.3730 C   0  0  0  0  0  3  0  0  0  0  0  0
   14.8120   18.4960    2.1440 C   0  0  0  0  0  3  0  0  0  0  0  0
   17.9420   18.7010    5.4740 C   0  0  1  0  0  3  0  0  0  0  0  0
   18.7990   18.8350    6.5270 O   0  0  0  0  0  0  0  0  0  0  0  0
   19.6550   18.4240    6.5160 H   0  0  0  0  0  0  0  0  0  0  0  0
   13.0960   24.0960    6.1420 C   0  0  2  0  0  3  0  0  0  0  0  0
   12.0590   24.6610    5.1830 C   0  0  2  0  0  3  0  0  0  0  0  0
   10.7880   25.0370    5.8130 C   0  0  0  0  0  0  0  0  0  0  0  0
   10.4530   24.4900    6.9060 O   0  0  0  0  0  0  0  0  0  0  0  0
    9.8690   26.0090    5.2530 N   0  0  0  0  0  0  0  0  0  0  0  0
   10.1070   26.5110    4.3980 H   0  0  0  0  0  0  0  0  0  0  0  0
    8.6340   26.2560    5.9070 C   0  0  1  0  0  3  0  0  0  0  0  0
    8.6540   27.1030    7.0940 C   0  0  0  0  0  0  0  0  0  0  0  0
    7.3690   27.6650    7.2090 C   0  0  0  0  0  0  0  0  0  0  0  0
    9.5710   27.4130    8.0480 C   0  0  0  0  0  3  0  0  0  0  0  0
    7.0950   28.4830    8.2520 C   0  0  0  0  0  3  0  0  0  0  0  0
    6.5370   27.2180    6.0370 C   0  0  0  0  0  2  0  0  0  0  0  0
    8.0190   28.7870    9.2090 C   0  0  0  0  0  3  0  0  0  0  0  0
    9.2800   28.2440    9.1050 C   0  0  0  0  0  3  0  0  0  0  0  0
    7.6690   27.0700    5.0040 C   0  0  1  0  0  3  0  0  0  0  0  0
    8.2120   28.3100    4.8150 O   0  0  0  0  0  0  0  0  0  0  0  0
    7.6220   28.8080    4.2620 H   0  0  0  0  0  0  0  0  0  0  0  0
   11.8630   23.8400    4.1130 O   0  0  0  0  0  0  0  0  0  0  0  0
   11.6280   24.4450    2.8980 C   0  0  0  0  0  2  0  0  0  0  0  0
   10.2060   24.4920    2.5090 C   0  0  0  0  0  0  0  0  0  0  0  0
    9.5300   25.5430    1.9630 C   0  0  0  0  0  3  0  0  0  0  0  0
    8.1910   25.5200    1.6560 C   0  0  0  0  0  3  0  0  0  0  0  0
    7.4460   24.3910    1.8950 C   0  0  0  0  0  3  0  0  0  0  0  0
    8.0970   23.3030    2.4460 C   0  0  0  0  0  3  0  0  0  0  0  0
    9.4340   23.3420    2.7490 C   0  0  0  0  0  3  0  0  0  0  0  0
   13.3600   25.1310    7.0520 O   0  0  0  0  0  0  0  0  0  0  0  0
   12.5640   25.3640    7.5130 H   0  0  0  0  0  0  0  0  0  0  0  0
   14.8370   24.8420    4.7100 O   0  0  0  0  0  0  0  0  0  0  0  0
   14.1840   25.3080    4.2010 H   0  0  0  0  0  0  0  0  0  0  0  0
  1 53  1  1  0  0  0
  1 26  1  0  0  0  0
  1  2  1  0  0  0  0
  2 11  1  1  0  0  0
  2  3  1  0  0  0  0
  3  4  1  0  0  0  0
  4  5  1  0  0  0  0
  5  6  1  0  0  0  0
  6  7  2  0  0  0  0
  8  7  1  0  0  0  0
  9  8  2  0  0  0  0
 10  5  2  0  0  0  0
 10  9  1  0  0  0  0
 11 12  2  0  0  0  0
 13 11  1  0  0  0  0
 14 13  1  0  0  0  0
 15 13  1  6  0  0  0
 16 15  1  0  0  0  0
 17 16  2  0  0  0  0
 17 20  1  0  0  0  0
 18 16  1  0  0  0  0
 19 17  1  0  0  0  0
 20 23  1  0  0  0  0
 21 19  2  0  0  0  0
 21 22  1  0  0  0  0
 22 18  2  0  0  0  0
 23 15  1  0  0  0  0
 23 24  1  1  0  0  0
 25 24  1  0  0  0  0
 26 51  1  1  0  0  0
 27 43  1  6  0  0  0
 27 28  1  0  0  0  0
 27 26  1  0  0  0  0
 28 29  2  0  0  0  0
 30 28  1  0  0  0  0
 31 30  1  0  0  0  0
 32 30  1  6  0  0  0
 32 33  1  0  0  0  0
 33 34  2  0  0  0  0
 33 35  1  0  0  0  0
 34 36  1  0  0  0  0
 35 39  2  0  0  0  0
 36 38  2  0  0  0  0
 37 34  1  0  0  0  0
 39 38  1  0  0  0  0
 40 41  1  1  0  0  0
 40 32  1  0  0  0  0
 40 37  1  0  0  0  0
 42 41  1  0  0  0  0
 44 43  1  0  0  0  0
 45 50  1  0  0  0  0
 45 44  1  0  0  0  0
 46 45  2  0  0  0  0
 47 48  2  0  0  0  0
 47 46  1  0  0  0  0
 48 49  1  0  0  0  0
 49 50  2  0  0  0  0
 51 52  1  0  0  0  0
 54 53  1  0  0  0  0
M  END
>  <minimizedAffinity>
-12.8331842

>  <minimizedRMSD>
0.525665283

$$$$
