
 OpenBabel04082420003D

 22 24  0  0  1  0  0  0  0  0999 V2000
    3.7640   63.9900   64.3990 C   0  0  0  0  0  0  0  0  0  0  0  0
    3.9210   62.7440   64.3650 O   0  0  0  0  0  0  0  0  0  0  0  0
    4.8060   64.8350   64.2450 N   0  0  0  0  0  0  0  0  0  0  0  0
    5.7400   64.4530   64.0990 H   0  0  0  0  0  0  0  0  0  0  0  0
    2.5120   64.5280   64.5960 C   0  0  0  0  0  3  0  0  0  0  0  0
    2.3230   65.9100   64.6360 C   0  0  0  0  0  3  0  0  0  0  0  0
    3.4060   66.7450   64.4760 C   0  0  0  0  0  0  0  0  0  0  0  0
    4.6390   66.1760   64.2810 C   0  0  0  0  0  0  0  0  0  0  0  0
    5.8850   66.9820   64.0950 C   0  0  0  0  0  2  0  0  0  0  0  0
    5.5820   68.4110   63.7810 C   0  0  1  0  0  3  0  0  0  0  0  0
    5.0400   68.4950   62.4130 C   0  0  0  0  0  2  0  0  0  0  0  0
    6.2580   70.1760   65.9630 C   0  0  0  0  0  1  0  0  0  0  0  0
    4.9180   69.6340   65.7560 C   0  0  0  0  0  3  0  0  0  0  0  0
    4.5140   68.8320   64.8210 C   0  0  0  0  0  0  0  0  0  0  0  0
    3.2410   68.2140   64.5150 C   0  0  1  0  0  0  0  0  0  0  0  0
    2.7810   68.7530   63.1590 C   0  0  0  0  0  2  0  0  0  0  0  0
    3.7580   68.4030   62.1070 C   0  0  2  0  0  3  0  0  0  0  0  0
    3.2430   67.9700   60.7800 C   0  0  0  0  0  1  0  0  0  0  0  0
    2.1310   68.5510   65.4160 N   0  0  0  0  0  4  0  0  0  0  0  0
    1.2670   68.0700   65.1640 H   0  0  0  0  0  0  0  0  0  0  0  0
    2.2520   68.1500   66.3460 H   0  0  0  0  0  0  0  0  0  0  0  0
    2.0170   69.5640   65.4430 H   0  0  0  0  0  0  0  0  0  0  0  0
  1  5  1  0  0  0  0
  2  1  2  0  0  0  0
  3  8  1  0  0  0  0
  3  1  1  0  0  0  0
  4  3  1  0  0  0  0
  5  6  2  0  0  0  0
  7 15  1  0  0  0  0
  7  6  1  0  0  0  0
  8  7  2  0  0  0  0
  9  8  1  0  0  0  0
 10 11  1  6  0  0  0
 10  9  1  0  0  0  0
 10 14  1  0  0  0  0
 13 12  1  0  0  0  0
 14 13  2  0  0  0  0
 15 14  1  0  0  0  0
 15 19  1  1  0  0  0
 16 15  1  0  0  0  0
 17 18  1  1  0  0  0
 17 11  1  0  0  0  0
 17 16  1  0  0  0  0
 19 22  1  0  0  0  0
 19 21  1  0  0  0  0
 20 19  1  0  0  0  0
M  END
>  <minimizedAffinity>
-8.15080452

>  <minimizedRMSD>
0.84847945

$$$$
