
 OpenBabel04082420053D

 21 24  0  0  1  0  0  0  0  0999 V2000
    1.2240   68.3480   65.2210 C   0  0  0  0  0  0  0  0  0  0  0  0
    0.0620   68.7760   65.4570 O   0  0  0  0  0  0  0  0  0  0  0  0
    1.6460   68.0940   63.9650 N   0  0  0  0  0  0  0  0  0  0  0  0
    1.0020   68.2560   63.1910 H   0  0  0  0  0  0  0  0  0  0  0  0
    2.0800   68.1350   66.2760 C   0  0  0  0  0  3  0  0  0  0  0  0
    3.3630   67.6640   66.0450 C   0  0  0  0  0  3  0  0  0  0  0  0
    3.7530   67.4190   64.7550 C   0  0  0  0  0  0  0  0  0  0  0  0
    2.8730   67.6390   63.6940 C   0  0  0  0  0  0  0  0  0  0  0  0
    3.2140   67.4010   62.2830 C   0  0  0  0  0  2  0  0  0  0  0  0
    4.5510   66.7690   62.0800 C   0  0  2  0  0  3  0  0  0  0  0  0
    4.4860   65.2730   62.1900 C   0  0  0  0  0  2  0  0  0  0  0  0
    5.8270   69.4500   64.1830 C   0  0  0  0  0  2  0  0  0  0  0  0
    5.9830   68.6560   62.9070 C   0  0  0  0  0  2  0  0  0  0  0  0
    5.5810   67.2300   63.0630 C   0  0  1  0  0  3  0  0  0  0  0  0
    5.1250   66.9070   64.4740 C   0  0  1  0  0  0  0  0  0  0  0  0
    6.1230   67.3540   65.4190 N   0  0  0  0  0  0  0  0  0  0  0  0
    6.5040   66.7400   66.1390 H   0  0  0  0  0  0  0  0  0  0  0  0
    5.0460   65.3990   64.5730 C   0  0  0  0  0  2  0  0  0  0  0  0
    4.9810   64.7120   63.2730 C   0  0  1  0  0  3  0  0  0  0  0  0
    5.4990   63.3220   63.1890 C   0  0  0  0  0  1  0  0  0  0  0  0
    6.5380   68.7070   65.2810 C   0  0  0  0  0  2  0  0  0  0  0  0
  1  2  2  0  0  0  0
  1  5  1  0  0  0  0
  3  1  1  0  0  0  0
  4  3  1  0  0  0  0
  6  5  2  0  0  0  0
  7  6  1  0  0  0  0
  8  3  1  0  0  0  0
  8  7  2  0  0  0  0
  9  8  1  0  0  0  0
 10 11  1  1  0  0  0
 10  9  1  0  0  0  0
 10 14  1  0  0  0  0
 11 19  1  0  0  0  0
 12 21  1  0  0  0  0
 13 12  1  0  0  0  0
 14 13  1  1  0  0  0
 14 15  1  0  0  0  0
 15 18  1  1  0  0  0
 15  7  1  0  0  0  0
 15 16  1  0  0  0  0
 16 17  1  0  0  0  0
 19 20  1  1  0  0  0
 19 18  1  0  0  0  0
 21 16  1  0  0  0  0
M  END
>  <minimizedAffinity>
-8.27338314

>  <minimizedRMSD>
1.06044328

$$$$
