
 OpenBabel04082420183D

 40 43  0  0  1  0  0  0  0  0999 V2000
    1.8320   66.1070   70.3130 C   0  0  0  0  0  2  0  0  0  0  0  0
    0.9560   65.0420   69.8190 C   0  0  0  0  0  2  0  0  0  0  0  0
    0.9520   63.8040   70.6340 C   0  0  0  0  0  2  0  0  0  0  0  0
    0.1350   63.9400   71.9340 C   0  0  0  0  0  2  0  0  0  0  0  0
    0.1210   62.6270   72.6680 C   0  0  0  0  0  2  0  0  0  0  0  0
    1.4200   61.9660   72.4810 N   0  0  0  0  0  4  0  0  0  0  0  0
    2.1450   62.6070   72.1570 H   0  0  0  0  0  0  0  0  0  0  0  0
    1.4290   61.3330   71.6810 H   0  0  0  0  0  0  0  0  0  0  0  0
    1.7640   61.3170   73.6970 C   0  0  2  0  0  3  0  0  0  0  0  0
    1.8210   59.8350   73.6080 C   0  0  0  0  0  0  0  0  0  0  0  0
    2.1600   59.1820   74.7770 C   0  0  0  0  0  0  0  0  0  0  0  0
    1.5480   59.1820   72.4230 C   0  0  0  0  0  3  0  0  0  0  0  0
    2.2340   57.8550   74.7880 N   0  0  0  0  0  0  0  0  0  0  0  0
    2.4230   60.0420   75.9610 C   0  0  0  0  0  2  0  0  0  0  0  0
    1.9750   57.1800   73.6570 C   0  0  0  0  0  0  0  0  0  0  0  0
    2.4830   57.3570   75.6430 H   0  0  0  0  0  0  0  0  0  0  0  0
    2.0460   55.9190   73.6680 O   0  0  0  0  0  0  0  0  0  0  0  0
    1.6330   57.7930   72.4660 C   0  0  0  0  0  3  0  0  0  0  0  0
    1.3100   61.0240   76.1070 C   0  0  0  0  0  2  0  0  0  0  0  0
    0.8360   61.6500   74.8430 C   0  0  0  0  0  2  0  0  0  0  0  0
    3.2150   66.3150   69.7950 C   0  0  0  0  0  2  0  0  0  0  0  0
    3.4360   66.5230   68.3670 C   0  0  0  0  0  2  0  0  0  0  0  0
    2.8740   65.5950   67.3560 C   0  0  0  0  0  2  0  0  0  0  0  0
    2.7330   66.0570   65.9770 C   0  0  0  0  0  2  0  0  0  0  0  0
    3.5450   67.2120   65.5120 C   0  0  0  0  0  2  0  0  0  0  0  0
    2.7350   68.0810   64.6320 N   0  0  0  0  0  4  0  0  0  0  0  0
    1.7830   68.2170   64.9720 H   0  0  0  0  0  0  0  0  0  0  0  0
    3.0260   69.0580   64.6590 H   0  0  0  0  0  0  0  0  0  0  0  0
    2.7830   67.5170   63.3110 C   0  0  1  0  0  3  0  0  0  0  0  0
    3.3560   68.5060   62.3160 C   0  0  0  0  0  2  0  0  0  0  0  0
    4.8550   68.6550   62.5110 C   0  0  0  0  0  2  0  0  0  0  0  0
    5.5740   67.3510   62.3750 C   0  0  0  0  0  2  0  0  0  0  0  0
    4.7950   66.1790   62.8260 C   0  0  0  0  0  0  0  0  0  0  0  0
    3.4970   66.2230   63.2660 C   0  0  0  0  0  0  0  0  0  0  0  0
    5.4230   64.9750   62.7970 N   0  0  0  0  0  0  0  0  0  0  0  0
    2.8650   65.0410   63.6680 C   0  0  0  0  0  3  0  0  0  0  0  0
    3.5330   63.8380   63.6250 C   0  0  0  0  0  3  0  0  0  0  0  0
    4.8310   63.8340   63.1780 C   0  0  0  0  0  0  0  0  0  0  0  0
    5.4510   62.7290   63.1360 O   0  0  0  0  0  0  0  0  0  0  0  0
    6.3890   64.9360   62.4700 H   0  0  0  0  0  0  0  0  0  0  0  0
  2  1  1  0  0  0  0
  2  3  1  0  0  0  0
  3  4  1  0  0  0  0
  4  5  1  0  0  0  0
  6  5  1  0  0  0  0
  7  6  1  0  0  0  0
  8  6  1  0  0  0  0
  9  6  1  6  0  0  0
  9 20  1  0  0  0  0
 10  9  1  0  0  0  0
 10 11  2  0  0  0  0
 11 13  1  0  0  0  0
 11 14  1  0  0  0  0
 12 18  2  0  0  0  0
 12 10  1  0  0  0  0
 13 16  1  0  0  0  0
 14 19  1  0  0  0  0
 15 17  2  0  0  0  0
 15 13  1  0  0  0  0
 18 15  1  0  0  0  0
 20 19  1  0  0  0  0
 21  1  1  0  0  0  0
 22 21  1  0  0  0  0
 23 22  1  0  0  0  0
 24 23  1  0  0  0  0
 25 24  1  0  0  0  0
 26 28  1  0  0  0  0
 26 27  1  0  0  0  0
 26 25  1  0  0  0  0
 29 26  1  1  0  0  0
 30 31  1  0  0  0  0
 30 29  1  0  0  0  0
 32 31  1  0  0  0  0
 32 33  1  0  0  0  0
 33 34  2  0  0  0  0
 34 29  1  0  0  0  0
 34 36  1  0  0  0  0
 35 33  1  0  0  0  0
 35 38  1  0  0  0  0
 37 36  2  0  0  0  0
 38 37  1  0  0  0  0
 39 38  2  0  0  0  0
 40 35  1  0  0  0  0
M  END
>  <minimizedAffinity>
-7.34966803

>  <minimizedRMSD>
1.76020658

$$$$
