
 OpenBabel04082420183D

 42 45  0  0  1  0  0  0  0  0999 V2000
    0.9130   64.2360   70.5840 C   0  0  0  0  0  2  0  0  0  0  0  0
    2.1130   65.0330   70.3180 C   0  0  0  0  0  2  0  0  0  0  0  0
    2.0270   66.3420   69.6530 C   0  0  0  0  0  2  0  0  0  0  0  0
    3.2810   66.7620   68.9110 C   0  0  0  0  0  2  0  0  0  0  0  0
    2.8500   67.6900   67.7950 C   0  0  0  0  0  2  0  0  0  0  0  0
    3.9610   67.9160   66.7940 C   0  0  0  0  0  2  0  0  0  0  0  0
    3.3270   68.5430   65.6230 N   0  0  0  0  0  4  0  0  0  0  0  0
    4.0240   68.9280   64.9840 H   0  0  0  0  0  0  0  0  0  0  0  0
    2.8510   69.4080   65.8770 H   0  0  0  0  0  0  0  0  0  0  0  0
    2.4330   67.6230   64.9430 C   0  0  2  0  0  3  0  0  0  0  0  0
    3.1090   66.3800   64.5230 C   0  0  0  0  0  0  0  0  0  0  0  0
    3.8320   66.3700   63.3550 C   0  0  0  0  0  0  0  0  0  0  0  0
    3.0400   65.2180   65.2770 C   0  0  0  0  0  3  0  0  0  0  0  0
    4.4750   65.2690   62.9140 N   0  0  0  0  0  0  0  0  0  0  0  0
    3.8870   67.6310   62.5680 C   0  0  0  0  0  2  0  0  0  0  0  0
    4.4060   64.1440   63.6470 C   0  0  0  0  0  0  0  0  0  0  0  0
    5.0050   65.2910   62.0420 H   0  0  0  0  0  0  0  0  0  0  0  0
    3.6950   64.1010   64.8260 C   0  0  0  0  0  3  0  0  0  0  0  0
    5.0050   63.1040   63.2460 O   0  0  0  0  0  0  0  0  0  0  0  0
    2.4720   68.1380   62.4710 C   0  0  0  0  0  2  0  0  0  0  0  0
    1.7570   68.2550   63.7710 C   0  0  0  0  0  2  0  0  0  0  0  0
    0.2500   64.2600   71.9050 C   0  0  0  0  0  2  0  0  0  0  0  0
   -0.2470   62.9970   72.4870 C   0  0  0  0  0  2  0  0  0  0  0  0
    0.8940   62.0130   72.7350 C   0  0  0  0  0  2  0  0  0  0  0  0
    0.3990   60.6160   72.7130 C   0  0  0  0  0  2  0  0  0  0  0  0
    0.0480   60.1080   74.1060 C   0  0  0  0  0  2  0  0  0  0  0  0
    0.8550   58.8840   74.4780 C   0  0  0  0  0  2  0  0  0  0  0  0
    0.6230   57.8990   73.4370 N   0  0  0  0  0  4  0  0  0  0  0  0
    0.4240   58.3320   72.5360 H   0  0  0  0  0  0  0  0  0  0  0  0
    1.4780   57.4060   73.1780 H   0  0  0  0  0  0  0  0  0  0  0  0
   -0.4250   56.9900   73.8460 C   0  0  1  0  0  3  0  0  0  0  0  0
   -0.0780   55.6260   73.3240 C   0  0  0  0  0  2  0  0  0  0  0  0
    0.9290   54.8950   74.1330 C   0  0  0  0  0  2  0  0  0  0  0  0
    1.4020   55.6090   75.3570 C   0  0  0  0  0  2  0  0  0  0  0  0
    0.3150   56.3200   76.0720 C   0  0  0  0  0  0  0  0  0  0  0  0
   -0.6100   57.0180   75.3130 C   0  0  0  0  0  0  0  0  0  0  0  0
    0.1750   56.3260   77.3980 N   0  0  0  0  0  0  0  0  0  0  0  0
   -1.6610   57.7140   75.8800 C   0  0  0  0  0  3  0  0  0  0  0  0
   -1.7830   57.7030   77.2550 C   0  0  0  0  0  3  0  0  0  0  0  0
   -0.8390   56.9950   77.9720 C   0  0  0  0  0  0  0  0  0  0  0  0
   -0.9310   56.9710   79.2370 O   0  0  0  0  0  0  0  0  0  0  0  0
    0.8420   55.8200   77.9800 H   0  0  0  0  0  0  0  0  0  0  0  0
  1 22  1  0  0  0  0
  2  1  1  0  0  0  0
  3  2  1  0  0  0  0
  4  3  1  0  0  0  0
  5  4  1  0  0  0  0
  6  5  1  0  0  0  0
  7  9  1  0  0  0  0
  7  6  1  0  0  0  0
  8  7  1  0  0  0  0
 10  7  1  6  0  0  0
 11 10  1  0  0  0  0
 11 13  1  0  0  0  0
 12 11  2  0  0  0  0
 14 12  1  0  0  0  0
 14 16  1  0  0  0  0
 15 12  1  0  0  0  0
 16 18  1  0  0  0  0
 17 14  1  0  0  0  0
 18 13  2  0  0  0  0
 19 16  2  0  0  0  0
 20 15  1  0  0  0  0
 20 21  1  0  0  0  0
 21 10  1  0  0  0  0
 22 23  1  0  0  0  0
 23 24  1  0  0  0  0
 25 24  1  0  0  0  0
 25 26  1  0  0  0  0
 26 27  1  0  0  0  0
 28 27  1  0  0  0  0
 29 28  1  0  0  0  0
 30 28  1  0  0  0  0
 31 28  1  1  0  0  0
 31 36  1  0  0  0  0
 32 31  1  0  0  0  0
 32 33  1  0  0  0  0
 33 34  1  0  0  0  0
 34 35  1  0  0  0  0
 35 37  1  0  0  0  0
 36 38  1  0  0  0  0
 36 35  2  0  0  0  0
 37 40  1  0  0  0  0
 37 42  1  0  0  0  0
 38 39  2  0  0  0  0
 39 40  1  0  0  0  0
 40 41  2  0  0  0  0
M  END
>  <minimizedAffinity>
-8.44634151

>  <minimizedRMSD>
1.29555237

$$$$
