
 OpenBabel04082419563D

 37 40  0  0  1  0  0  0  0  0999 V2000
   -1.7390   18.7650   17.8600 C   0  0  2  0  0  3  0  0  0  0  0  0
   -2.6750   17.6430   18.2900 C   0  0  0  0  0  2  0  0  0  0  0  0
   -2.1720   16.2920   18.0730 C   0  0  0  0  0  0  0  0  0  0  0  0
   -1.5060   15.6260   19.1090 C   0  0  0  0  0  3  0  0  0  0  0  0
   -1.0200   14.3640   18.8590 C   0  0  0  0  0  3  0  0  0  0  0  0
   -1.1880   13.7820   17.6290 C   0  0  0  0  0  3  0  0  0  0  0  0
   -1.8440   14.4250   16.5920 C   0  0  0  0  0  0  0  0  0  0  0  0
   -2.3330   15.6810   16.8240 C   0  0  0  0  0  3  0  0  0  0  0  0
   -1.9860   13.7500   15.3120 C   0  0  0  0  0  0  0  0  0  0  0  0
   -2.5840   14.4450   14.2370 N   0  0  0  0  0  2  0  0  0  0  0  0
   -1.5860   12.5480   15.1360 N   0  0  0  0  0  2  0  0  0  0  0  0
   -1.1920   11.9940   15.9360 H   0  0  0  0  0  0  0  0  0  0  0  0
   -2.0620   19.0480   16.4370 N   0  0  0  0  0  2  0  0  0  0  0  0
   -1.7450   20.6800   16.0310 S   0  0  0  0  0  0  0  0  0  0  0  0
   -2.4140   21.6490   16.9290 O   0  0  0  0  0  0  0  0  0  0  0  0
   -2.3220   20.8900   14.6410 O   0  0  0  0  0  0  0  0  0  0  0  0
   -0.0280   21.0170   15.9230 C   0  0  0  0  0  0  0  0  0  0  0  0
    0.5810   22.0390   16.6260 C   0  0  0  0  0  3  0  0  0  0  0  0
    1.9430   22.2850   16.5190 C   0  0  0  0  0  0  0  0  0  0  0  0
    2.7430   21.5200   15.7050 C   0  0  0  0  0  0  0  0  0  0  0  0
    2.5460   23.3140   17.2300 C   0  0  0  0  0  3  0  0  0  0  0  0
    2.1580   20.4970   14.9950 C   0  0  0  0  0  3  0  0  0  0  0  0
    4.1010   21.7910   15.6200 C   0  0  0  0  0  3  0  0  0  0  0  0
    0.8040   20.2570   15.1050 C   0  0  0  0  0  3  0  0  0  0  0  0
    4.7020   22.8140   16.3270 C   0  0  0  0  0  3  0  0  0  0  0  0
    3.8970   23.5780   17.1410 C   0  0  0  0  0  3  0  0  0  0  0  0
   -0.3130   18.4230   17.9740 C   0  0  0  0  0  0  0  0  0  0  0  0
    0.6020   19.0620   18.8050 N   0  0  0  0  0  0  0  0  0  0  0  0
    1.9890   19.1900   18.4200 C   0  0  0  0  0  2  0  0  0  0  0  0
    0.2240   19.6450   20.0850 C   0  0  2  0  0  3  0  0  0  0  0  0
    2.7640   18.7040   19.6680 C   0  0  0  0  0  2  0  0  0  0  0  0
    2.6590   19.7910   20.7110 C   0  0  0  0  0  2  0  0  0  0  0  0
    1.3040   20.4220   20.7550 C   0  0  0  0  0  2  0  0  0  0  0  0
    0.1360   17.4640   17.2520 O   0  0  0  0  0  0  0  0  0  0  0  0
   -0.3170   18.6060   20.9820 C   0  0  0  0  0  0  0  0  0  0  0  0
   -1.6030   18.7580   21.4590 O   0  0  0  0  0  1  0  0  0  0  0  0
    0.3390   17.6050   21.3220 O   0  0  0  0  0  0  0  0  0  0  0  0
  1 27  1  0  0  0  0
  1  2  1  6  0  0  0
  3  2  1  0  0  0  0
  3  4  1  0  0  0  0
  5  4  2  0  0  0  0
  6  5  1  0  0  0  0
  7  8  1  0  0  0  0
  7  6  2  0  0  0  0
  8  3  2  0  0  0  0
  9  7  1  0  0  0  0
 10  9  2  0  0  0  0
 11  9  1  0  0  0  0
 11 12  1  0  0  0  0
 13  1  1  0  0  0  0
 14 13  1  0  0  0  0
 14 15  2  0  0  0  0
 16 14  2  0  0  0  0
 17 14  1  0  0  0  0
 17 18  1  0  0  0  0
 19 18  2  0  0  0  0
 19 21  1  0  0  0  0
 20 19  1  0  0  0  0
 22 24  1  0  0  0  0
 22 20  2  0  0  0  0
 23 20  1  0  0  0  0
 23 25  2  0  0  0  0
 24 17  2  0  0  0  0
 25 26  1  0  0  0  0
 26 21  2  0  0  0  0
 27 28  1  0  0  0  0
 28 30  1  0  0  0  0
 29 28  1  0  0  0  0
 29 31  1  0  0  0  0
 30 33  1  0  0  0  0
 30 35  1  1  0  0  0
 31 32  1  0  0  0  0
 32 33  1  0  0  0  0
 34 27  2  0  0  0  0
 35 37  2  0  0  0  0
 35 36  1  0  0  0  0
M  END
>  <minimizedAffinity>
-7.88238478

>  <minimizedRMSD>
0.513460398

$$$$
