
 OpenBabel04082420153D

 42 46  0  0  0  0  0  0  0  0999 V2000
    2.2180   10.2260   24.6840 C   0  0  0  0  0  0  0  0  0  0  0  0
    2.8490    9.4270   25.6110 C   0  0  0  0  0  3  0  0  0  0  0  0
    3.9970    8.7050   25.3140 C   0  0  0  0  0  3  0  0  0  0  0  0
    4.5240    8.7930   24.0470 C   0  0  0  0  0  0  0  0  0  0  0  0
    3.9080    9.5810   23.1240 C   0  0  0  0  0  0  0  0  0  0  0  0
    2.7490   10.3110   23.4200 C   0  0  0  0  0  3  0  0  0  0  0  0
    4.6630    9.4550   21.9890 C   0  0  0  0  0  3  0  0  0  0  0  0
    5.6400    8.1840   23.5110 N   0  0  0  0  0  0  0  0  0  0  0  0
    5.7460    8.5730   22.2490 C   0  0  0  0  0  0  0  0  0  0  0  0
    6.6870    8.2460   21.1890 C   0  0  0  0  0  0  0  0  0  0  0  0
    7.0220    6.9790   20.6850 N   0  0  0  0  0  2  0  0  0  0  0  0
    7.3150    9.2090   20.6090 O   0  0  0  0  0  0  0  0  0  0  0  0
    7.4580    6.7260   19.3210 C   0  0  0  0  0  2  0  0  0  0  0  0
    7.7230    5.3340   19.0140 C   0  0  0  0  0  0  0  0  0  0  0  0
    8.0520    4.9730   17.7240 C   0  0  0  0  0  3  0  0  0  0  0  0
    8.2910    3.6500   17.4200 C   0  0  0  0  0  3  0  0  0  0  0  0
    8.2090    2.6840   18.3720 C   0  0  0  0  0  0  0  0  0  0  0  0
    7.8830    3.0060   19.6690 C   0  0  0  0  0  3  0  0  0  0  0  0
    7.6430    4.3550   19.9640 C   0  0  0  0  0  3  0  0  0  0  0  0
    8.4450    1.2980   18.1150 N   0  0  0  0  0  4  0  0  0  0  0  0
    9.8190    1.1220   17.7130 C   0  0  0  0  0  1  0  0  0  0  0  0
    7.5260    0.8490   17.0840 C   0  0  0  0  0  1  0  0  0  0  0  0
    8.2290    0.4950   19.3020 C   0  0  0  0  0  1  0  0  0  0  0  0
    6.4720    7.2760   24.2430 C   0  0  0  0  0  2  0  0  0  0  0  0
    7.7920    7.7510   24.6350 C   0  0  0  0  0  0  0  0  0  0  0  0
    8.5010    7.1350   25.6370 C   0  0  0  0  0  3  0  0  0  0  0  0
    9.7640    7.5620   26.0710 C   0  0  0  0  0  0  0  0  0  0  0  0
   10.2740    8.6620   25.4260 C   0  0  0  0  0  3  0  0  0  0  0  0
    9.5930    9.3060   24.4150 C   0  0  0  0  0  3  0  0  0  0  0  0
    8.3690    8.8450   24.0360 C   0  0  0  0  0  3  0  0  0  0  0  0
   10.4670    6.8720   27.1370 C   0  0  0  0  0  0  0  0  0  0  0  0
    9.9550    5.6730   27.6790 N   0  0  0  0  0  2  0  0  0  0  0  0
   11.5600    7.3510   27.5920 N   0  0  0  0  0  2  0  0  0  0  0  0
   11.8250    7.2480   28.5830 H   0  0  0  0  0  0  0  0  0  0  0  0
    1.0530   10.9400   25.0350 O   0  0  0  0  0  0  0  0  0  0  0  0
    0.6190   12.0520   24.3130 C   0  0  0  0  0  2  0  0  0  0  0  0
   -0.6010   12.5880   24.9390 C   0  0  0  0  0  0  0  0  0  0  0  0
   -1.2220   13.6860   24.4090 C   0  0  0  0  0  3  0  0  0  0  0  0
   -2.3770   14.1800   25.0150 C   0  0  0  0  0  3  0  0  0  0  0  0
   -2.8660   13.5470   26.1350 C   0  0  0  0  0  3  0  0  0  0  0  0
   -2.2440   12.4510   26.6630 C   0  0  0  0  0  3  0  0  0  0  0  0
   -1.1080   11.9720   26.0590 C   0  0  0  0  0  3  0  0  0  0  0  0
  1 35  1  0  0  0  0
  1  2  1  0  0  0  0
  3  2  2  0  0  0  0
  4  3  1  0  0  0  0
  5  6  1  0  0  0  0
  5  4  2  0  0  0  0
  6  1  2  0  0  0  0
  7  9  2  0  0  0  0
  7  5  1  0  0  0  0
  8  4  1  0  0  0  0
  8 24  1  0  0  0  0
  9  8  1  0  0  0  0
 10  9  1  0  0  0  0
 11 10  1  0  0  0  0
 12 10  2  0  0  0  0
 13 11  1  0  0  0  0
 14 13  1  0  0  0  0
 14 19  1  0  0  0  0
 15 14  2  0  0  0  0
 16 15  1  0  0  0  0
 16 17  2  0  0  0  0
 17 18  1  0  0  0  0
 18 19  2  0  0  0  0
 20 17  1  0  0  0  0
 20 23  1  0  0  0  0
 21 20  1  0  0  0  0
 22 20  1  0  0  0  0
 24 25  1  0  0  0  0
 25 26  1  0  0  0  0
 26 27  2  0  0  0  0
 27 31  1  0  0  0  0
 28 27  1  0  0  0  0
 29 28  2  0  0  0  0
 30 29  1  0  0  0  0
 30 25  2  0  0  0  0
 31 33  1  0  0  0  0
 31 32  2  0  0  0  0
 33 34  1  0  0  0  0
 36 37  1  0  0  0  0
 36 35  1  0  0  0  0
 37 42  1  0  0  0  0
 38 37  2  0  0  0  0
 38 39  1  0  0  0  0
 39 40  2  0  0  0  0
 40 41  1  0  0  0  0
 42 41  2  0  0  0  0
M  END
>  <minimizedAffinity>
-9.07225418

>  <minimizedRMSD>
0.544145823

$$$$
