
 OpenBabel04082420113D

 32 34  0  0  1  0  0  0  0  0999 V2000
   37.1050    7.2220   16.4560 C   0  0  1  0  0  3  0  0  0  0  0  0
   36.5800    6.2550   17.3130 O   0  0  0  0  0  0  0  0  0  0  0  0
   38.3800    7.6020   17.1590 C   0  0  2  0  0  3  0  0  0  0  0  0
   37.9590    7.4710   18.6290 C   0  0  2  0  0  3  0  0  0  0  0  0
   36.5350    6.9850   18.5220 C   0  0  2  0  0  3  0  0  0  0  0  0
   36.1460    6.1470   19.6330 N   0  0  0  0  0  0  0  0  0  0  0  0
   35.2380    6.4160   20.5640 C   0  0  0  0  0  2  0  0  0  0  0  0
   35.1900    5.3720   21.4040 N   0  0  0  0  0  0  0  0  0  0  0  0
   36.0600    4.4450   21.0140 C   0  0  0  0  0  0  0  0  0  0  0  0
   34.5800    5.3010   22.2190 H   0  0  0  0  0  0  0  0  0  0  0  0
   36.3980    3.2050   21.5230 C   0  0  1  0  0  3  0  0  0  0  0  0
   36.6700    4.9270   19.8940 C   0  0  0  0  0  0  0  0  0  0  0  0
   35.7490    2.7240   22.6910 N   0  0  0  0  0  1  0  0  0  0  0  0
   37.3340    2.5150   20.8710 N   0  0  0  0  0  0  0  0  0  0  0  0
   37.9460    2.9740   19.7660 C   0  0  0  0  0  2  0  0  0  0  0  0
   37.5990    1.5970   21.2280 H   0  0  0  0  0  0  0  0  0  0  0  0
   37.6180    4.1780   19.2730 N   0  0  0  0  0  0  0  0  0  0  0  0
   38.0800    4.5310   18.4340 H   0  0  0  0  0  0  0  0  0  0  0  0
   37.9190    8.7290   19.2370 O   0  0  0  0  0  0  0  0  0  0  0  0
   37.6580    8.6470   20.1470 H   0  0  0  0  0  0  0  0  0  0  0  0
   37.3170    6.6660   15.0890 C   0  0  0  0  0  2  0  0  0  0  0  0
   38.6140    6.1870   14.9990 O   0  0  0  0  0  0  0  0  0  0  0  0
   38.6810    4.5040   14.9820 P   0  0  1  0  0  0  0  0  0  0  0  0
   40.0500    3.9810   14.1470 O   0  0  0  0  0  0  0  0  0  0  0  0
   38.7810    4.0320   16.4180 O   0  0  0  0  0  1  0  0  0  0  0  0
   37.2900    3.8230   14.3160 O   0  0  0  0  0  0  0  0  0  0  0  0
   37.5170    3.6650   12.6580 P   0  0  0  0  0  0  0  0  0  0  0  0
   38.6500    2.4100   12.4300 O   0  0  0  0  0  1  0  0  0  0  0  0
   36.2460    3.3770   11.9160 O   0  0  0  0  0  0  0  0  0  0  0  0
   38.1940    5.0740   11.9910 O   0  0  0  0  0  1  0  0  0  0  0  0
   38.6680    8.9380   16.9160 O   0  0  0  0  0  0  0  0  0  0  0  0
   39.4730    9.1780   17.3590 H   0  0  0  0  0  0  0  0  0  0  0  0
  1 21  1  6  0  0  0
  1  3  1  0  0  0  0
  1  2  1  0  0  0  0
  2  5  1  0  0  0  0
  3 31  1  1  0  0  0
  3  4  1  0  0  0  0
  4 19  1  6  0  0  0
  5  4  1  0  0  0  0
  5  6  1  1  0  0  0
  6 12  1  0  0  0  0
  6  7  1  0  0  0  0
  7  8  1  0  0  0  0
  8 10  1  0  0  0  0
  9  8  1  0  0  0  0
  9 11  1  0  0  0  0
 11 13  1  6  0  0  0
 12  9  2  0  0  0  0
 14 16  1  0  0  0  0
 14 11  1  0  0  0  0
 15 14  1  0  0  0  0
 17 15  1  0  0  0  0
 17 12  1  0  0  0  0
 18 17  1  0  0  0  0
 19 20  1  0  0  0  0
 22 21  1  0  0  0  0
 23 24  2  6  0  0  0
 23 22  1  0  0  0  0
 23 25  1  0  0  0  0
 26 23  1  0  0  0  0
 27 26  1  0  0  0  0
 28 27  1  0  0  0  0
 29 27  2  0  0  0  0
 30 27  1  0  0  0  0
 31 32  1  0  0  0  0
M  END
>  <minimizedAffinity>
-4.55561638

>  <minimizedRMSD>
0.778909743

$$$$
