
 OpenBabel04082419533D

 29 32  0  0  0  0  0  0  0  0999 V2000
   44.3920   -2.9890   26.4520 C   0  0  0  0  0  0  0  0  0  0  0  0
   44.9570   -1.7270   26.4530 C   0  0  0  0  0  3  0  0  0  0  0  0
   45.0490   -1.0100   27.6260 C   0  0  0  0  0  3  0  0  0  0  0  0
   44.5880   -1.5150   28.8190 C   0  0  0  0  0  0  0  0  0  0  0  0
   44.0250   -2.7720   28.8180 C   0  0  0  0  0  0  0  0  0  0  0  0
   43.9310   -3.4960   27.6480 C   0  0  0  0  0  3  0  0  0  0  0  0
   44.5610   -1.0180   30.0940 N   0  0  0  0  0  0  0  0  0  0  0  0
   44.9170   -0.1020   30.3670 H   0  0  0  0  0  0  0  0  0  0  0  0
   43.6680   -2.9900   30.1450 C   0  0  0  0  0  3  0  0  0  0  0  0
   44.0070   -1.8910   30.9240 C   0  0  0  0  0  0  0  0  0  0  0  0
   43.7560   -1.8230   32.3620 C   0  0  0  0  0  0  0  0  0  0  0  0
   43.1950   -2.9290   33.0130 C   0  0  0  0  0  3  0  0  0  0  0  0
   42.9630   -2.8550   34.3650 C   0  0  0  0  0  3  0  0  0  0  0  0
   43.2720   -1.7110   35.0900 C   0  0  0  0  0  3  0  0  0  0  0  0
   43.8250   -0.6070   34.4810 C   0  0  0  0  0  0  0  0  0  0  0  0
   44.0520   -0.7040   33.1060 C   0  0  0  0  0  0  0  0  0  0  0  0
   44.1610    0.6080   35.2120 C   0  0  0  0  0  0  0  0  0  0  0  0
   45.2890    0.6330   36.0090 C   0  0  0  0  0  3  0  0  0  0  0  0
   45.6560    1.7560   36.7230 C   0  0  0  0  0  3  0  0  0  0  0  0
   44.8940    2.9040   36.6580 C   0  0  0  0  0  3  0  0  0  0  0  0
   43.7570    2.9070   35.8670 C   0  0  0  0  0  3  0  0  0  0  0  0
   43.4090    1.7640   35.1580 C   0  0  0  0  0  3  0  0  0  0  0  0
   44.6100    0.4220   32.5100 O   0  0  0  0  0  0  0  0  0  0  0  0
   44.8130    1.1940   33.0250 H   0  0  0  0  0  0  0  0  0  0  0  0
   44.2580   -3.8060   25.2680 C   0  0  0  0  0  0  0  0  0  0  0  0
   43.6920   -5.0940   25.3780 N   0  0  0  0  0  2  0  0  0  0  0  0
   44.6430   -3.3870   24.1250 N   0  0  0  0  0  0  0  0  0  0  0  0
   45.0520   -2.4560   24.0460 H   0  0  0  0  0  0  0  0  0  0  0  0
   44.5480   -3.9620   23.2890 H   0  0  0  0  0  0  0  0  0  0  0  0
  1  2  2  0  0  0  0
  1  6  1  0  0  0  0
  2  3  1  0  0  0  0
  3  4  2  0  0  0  0
  4  7  1  0  0  0  0
  5  4  1  0  0  0  0
  5  9  1  0  0  0  0
  6  5  2  0  0  0  0
  7  8  1  0  0  0  0
  7 10  1  0  0  0  0
  9 10  2  0  0  0  0
 10 11  1  0  0  0  0
 11 12  2  0  0  0  0
 11 16  1  0  0  0  0
 12 13  1  0  0  0  0
 13 14  2  0  0  0  0
 15 14  1  0  0  0  0
 15 17  1  0  0  0  0
 16 15  2  0  0  0  0
 17 18  1  0  0  0  0
 18 19  2  0  0  0  0
 20 19  1  0  0  0  0
 21 20  2  0  0  0  0
 22 17  2  0  0  0  0
 22 21  1  0  0  0  0
 23 24  1  0  0  0  0
 23 16  1  0  0  0  0
 25 26  2  0  0  0  0
 25  1  1  0  0  0  0
 27 25  1  0  0  0  0
 28 27  1  0  0  0  0
 29 27  1  0  0  0  0
M  END
>  <minimizedAffinity>
-7.22310638

>  <minimizedRMSD>
0.946321964

$$$$
