
 OpenBabel04082419533D

 17 17  0  0  1  0  0  0  0  0999 V2000
   14.3110    3.6760   16.1410 N   0  0  0  0  0  4  0  0  0  0  0  0
   14.0670    4.1740   15.2850 H   0  0  0  0  0  0  0  0  0  0  0  0
   13.5170    4.0320   16.6710 H   0  0  0  0  0  0  0  0  0  0  0  0
   15.5910    3.9570   16.6770 C   0  0  0  0  0  2  0  0  0  0  0  0
   14.4070    2.1980   16.0280 C   0  0  1  0  0  3  0  0  0  0  0  0
   15.7690    2.0170   15.3810 C   0  0  2  0  0  3  0  0  0  0  0  0
   16.5520    3.1700   15.7590 C   0  0  1  0  0  3  0  0  0  0  0  0
   15.6590    1.5810   13.9650 C   0  0  0  0  0  2  0  0  0  0  0  0
   15.5820    0.0800   13.9230 C   0  0  0  0  0  0  0  0  0  0  0  0
   16.1630   -0.6970   14.9180 O   0  0  0  0  0  1  0  0  0  0  0  0
   14.9960   -0.4790   12.9950 O   0  0  0  0  0  0  0  0  0  0  0  0
   14.3600    1.6920   17.4020 C   0  0  0  0  0  0  0  0  0  0  0  0
   14.8300    0.4670   17.8190 O   0  0  0  0  0  0  0  0  0  0  0  0
   13.8520    2.4150   18.3290 O   0  0  0  0  0  1  0  0  0  0  0  0
   17.2360    4.0830   14.8680 C   0  0  0  0  0  0  0  0  0  0  0  0
   18.7790    3.9210   14.7260 C   0  0  0  0  0  1  0  0  0  0  0  0
   16.7600    5.0310   14.1520 C   0  0  0  0  0  2  0  0  0  0  0  0
  1  3  1  0  0  0  0
  1  4  1  0  0  0  0
  2  1  1  0  0  0  0
  5  1  1  0  0  0  0
  5 12  1  1  0  0  0
  6  8  1  6  0  0  0
  6  7  1  0  0  0  0
  6  5  1  0  0  0  0
  7 15  1  6  0  0  0
  7  4  1  0  0  0  0
  9  8  1  0  0  0  0
  9 10  1  0  0  0  0
 11  9  2  0  0  0  0
 12 13  2  0  0  0  0
 12 14  1  0  0  0  0
 16 15  1  0  0  0  0
 17 15  2  0  0  0  0
M  END
>  <minimizedAffinity>
-5.3583498

>  <minimizedRMSD>
0.378339976

$$$$
