
 OpenBabel04082420143D

 17 17  0  0  1  0  0  0  0  0999 V2000
   77.2870   27.4270   42.2750 C   0  0  0  0  0  2  0  0  0  0  0  0
   76.1150   26.6740   42.9090 C   0  0  2  0  0  3  0  0  0  0  0  0
   74.9600   27.5870   42.9460 N   0  0  0  0  0  4  0  0  0  0  0  0
   74.1550   27.1840   43.4260 H   0  0  0  0  0  0  0  0  0  0  0  0
   75.1060   28.3830   43.5660 H   0  0  0  0  0  0  0  0  0  0  0  0
   74.7450   27.8700   41.9890 H   0  0  0  0  0  0  0  0  0  0  0  0
   76.4230   26.2680   44.2880 C   0  0  0  0  0  0  0  0  0  0  0  0
   75.8890   26.8720   45.2630 O   0  0  0  0  0  1  0  0  0  0  0  0
   77.2860   25.2370   44.5550 O   0  0  0  0  0  0  0  0  0  0  0  0
   77.1820   27.4420   40.8080 C   0  0  0  0  0  0  0  0  0  0  0  0
   77.4790   26.3950   39.9530 C   0  0  0  0  0  0  0  0  0  0  0  0
   77.8910   25.2560   40.3270 O   0  0  0  0  0  0  0  0  0  0  0  0
   77.2500   26.8140   38.7090 N   0  0  0  0  0  0  0  0  0  0  0  0
   76.8410   28.0330   38.7740 O   0  0  0  0  0  0  0  0  0  0  0  0
   77.3770   26.2670   37.8570 H   0  0  0  0  0  0  0  0  0  0  0  0
   76.7710   28.4850   39.9790 C   0  0  0  0  0  0  0  0  0  0  0  0
   76.3490   29.8160   40.4210 C   0  0  0  0  0  1  0  0  0  0  0  0
  2  1  1  1  0  0  0
  2  3  1  0  0  0  0
  2  7  1  0  0  0  0
  3  4  1  0  0  0  0
  3  5  1  0  0  0  0
  6  3  1  0  0  0  0
  7  9  2  0  0  0  0
  7  8  1  0  0  0  0
 10  1  1  0  0  0  0
 11 12  2  0  0  0  0
 11 10  1  0  0  0  0
 13 14  1  0  0  0  0
 13 11  1  0  0  0  0
 14 16  1  0  0  0  0
 15 13  1  0  0  0  0
 16 17  1  0  0  0  0
 16 10  2  0  0  0  0
M  END
>  <minimizedAffinity>
-6.30979872

>  <minimizedRMSD>
0.269665927

$$$$
