
 OpenBabel04082420043D

 21 22  0  0  1  0  0  0  0  0999 V2000
   31.3230   66.3400    6.8140 C   0  0  1  0  0  3  0  0  0  0  0  0
   32.3200   66.7570    7.8780 C   0  0  1  0  0  3  0  0  0  0  0  0
   31.9250   66.2780    9.2260 C   0  0  1  0  0  3  0  0  0  0  0  0
   30.6440   65.5310    9.2940 C   0  0  1  0  0  3  0  0  0  0  0  0
   30.0280   65.6310   10.6040 N   0  0  0  0  0  0  0  0  0  0  0  0
   30.4860   65.8670   11.4840 H   0  0  0  0  0  0  0  0  0  0  0  0
   28.6500   65.3300   10.4050 C   0  0  0  0  0  0  0  0  0  0  0  0
   27.8330   64.9230   11.2590 O   0  0  0  0  0  0  0  0  0  0  0  0
   28.3740   65.5970    8.9840 C   0  0  0  0  0  0  0  0  0  0  0  0
   27.2860   65.4690    8.3680 O   0  0  0  0  0  0  0  0  0  0  0  0
   29.6090   66.0390    8.4300 N   0  0  0  0  0  0  0  0  0  0  0  0
   29.9650   66.8200    7.2820 C   0  0  2  0  0  3  0  0  0  0  0  0
   28.9630   66.7690    6.1720 C   0  0  0  0  0  2  0  0  0  0  0  0
   27.8750   67.5710    6.5090 O   0  0  0  0  0  0  0  0  0  0  0  0
   27.2380   67.5380    5.8040 H   0  0  0  0  0  0  0  0  0  0  0  0
   31.6720   66.8110    5.5740 O   0  0  0  0  0  0  0  0  0  0  0  0
   31.0480   66.5510    4.9070 H   0  0  0  0  0  0  0  0  0  0  0  0
   33.6250   66.4190    7.5290 O   0  0  0  0  0  0  0  0  0  0  0  0
   34.2490   66.6800    8.1960 H   0  0  0  0  0  0  0  0  0  0  0  0
   32.9530   65.4250    9.6900 O   0  0  0  0  0  0  0  0  0  0  0  0
   32.7000   65.1190   10.5540 H   0  0  0  0  0  0  0  0  0  0  0  0
  1 16  1  6  0  0  0
  1 12  1  0  0  0  0
  1  2  1  0  0  0  0
  2 18  1  6  0  0  0
  2  3  1  0  0  0  0
  3  4  1  0  0  0  0
  3 20  1  6  0  0  0
  4 11  1  6  0  0  0
  4  5  1  0  0  0  0
  5  6  1  0  0  0  0
  7  5  1  0  0  0  0
  7  8  2  0  0  0  0
  9  7  1  0  0  0  0
 10  9  2  0  0  0  0
 11  9  1  0  0  0  0
 12 13  1  6  0  0  0
 12 11  1  0  0  0  0
 13 14  1  0  0  0  0
 15 14  1  0  0  0  0
 17 16  1  0  0  0  0
 18 19  1  0  0  0  0
 20 21  1  0  0  0  0
M  END
>  <minimizedAffinity>
-6.88293648

>  <minimizedRMSD>
0.707283318

$$$$
