
 OpenBabel04082420133D

 28 30  0  0  1  0  0  0  0  0999 V2000
    0.6380    5.3200   26.8510 C   0  0  2  0  0  3  0  0  0  0  0  0
    0.4670    4.0780   27.3770 C   0  0  0  0  0  3  0  0  0  0  0  0
    1.7160    6.0160   27.3300 N   0  0  0  0  0  0  0  0  0  0  0  0
    1.8900    6.9530   26.9670 H   0  0  0  0  0  0  0  0  0  0  0  0
    2.5500    5.5240   28.2510 C   0  0  2  0  0  3  0  0  0  0  0  0
    2.3340    4.2700   28.7480 N   0  0  0  0  0  0  0  0  0  0  0  0
    2.9700    3.8920   29.4500 H   0  0  0  0  0  0  0  0  0  0  0  0
    1.3030    3.5310   28.3280 C   0  0  0  0  0  3  0  0  0  0  0  0
   -0.2320    5.9950   25.8950 C   0  0  0  0  0  0  0  0  0  0  0  0
   -1.3990    5.6830   25.2610 C   0  0  0  0  0  0  0  0  0  0  0  0
   -2.1050    4.3640   25.4660 C   0  0  0  0  0  1  0  0  0  0  0  0
   -1.8780    6.6330   24.4780 N   0  0  0  0  0  0  0  0  0  0  0  0
   -1.4650    7.6880   24.2440 C   0  0  2  0  0  3  0  0  0  0  0  0
   -2.7490    6.3980   24.0030 H   0  0  0  0  0  0  0  0  0  0  0  0
    0.1040    7.6780   25.3090 S   0  0  0  0  0  0  0  0  0  0  0  0
   -1.7080    8.9010   23.4990 N   0  0  0  0  0  0  0  0  0  0  0  0
   -0.8070   10.0160   23.5750 C   0  0  0  0  0  1  0  0  0  0  0  0
   -2.5360    8.9660   22.9070 H   0  0  0  0  0  0  0  0  0  0  0  0
    3.6540    6.2500   28.7700 N   0  0  0  0  0  0  0  0  0  0  0  0
    4.1560    5.8870   29.5800 H   0  0  0  0  0  0  0  0  0  0  0  0
    4.0700    7.4600   28.1880 C   0  0  0  0  0  0  0  0  0  0  0  0
    5.2250    8.0730   28.7040 C   0  0  0  0  0  3  0  0  0  0  0  0
    5.6850    9.2560   28.1760 C   0  0  0  0  0  3  0  0  0  0  0  0
    5.0130    9.8480   27.1340 C   0  0  0  0  0  0  0  0  0  0  0  0
    3.8850    9.2780   26.6080 C   0  0  0  0  0  3  0  0  0  0  0  0
    3.4220    8.0810   27.1450 C   0  0  0  0  0  3  0  0  0  0  0  0
    5.5080   11.0580   26.6150 O   0  0  0  0  0  0  0  0  0  0  0  0
    5.0430   11.4670   25.8950 H   0  0  0  0  0  0  0  0  0  0  0  0
  1  9  1  1  0  0  0
  1  3  1  0  0  0  0
  1  2  1  0  0  0  0
  2  8  2  0  0  0  0
  3  5  1  0  0  0  0
  4  3  1  0  0  0  0
  5  6  1  0  0  0  0
  5 19  1  1  0  0  0
  6  7  1  0  0  0  0
  8  6  1  0  0  0  0
 10 11  1  0  0  0  0
 10  9  2  0  0  0  0
 12 10  1  0  0  0  0
 13 16  1  1  0  0  0
 13 12  1  0  0  0  0
 13 15  1  0  0  0  0
 14 12  1  0  0  0  0
 15  9  1  0  0  0  0
 16 17  1  0  0  0  0
 18 16  1  0  0  0  0
 19 20  1  0  0  0  0
 21 22  1  0  0  0  0
 21 19  1  0  0  0  0
 23 22  2  0  0  0  0
 24 23  1  0  0  0  0
 25 24  2  0  0  0  0
 25 26  1  0  0  0  0
 26 21  2  0  0  0  0
 27 24  1  0  0  0  0
 28 27  1  0  0  0  0
M  END
>  <minimizedAffinity>
-8.08615589

>  <minimizedRMSD>
0.700914145

$$$$
