
 OpenBabel04082419593D

 28 28  0  0  1  0  0  0  0  0999 V2000
   36.2540   42.0200   -2.8690 C   0  0  2  0  0  3  0  0  0  0  0  0
   35.2720   41.5390   -3.8370 N   0  0  0  0  0  0  0  0  0  0  0  0
   35.3170   41.8910   -5.2170 C   0  0  0  0  0  0  0  0  0  0  0  0
   36.3710   42.4510   -5.6130 O   0  0  0  0  0  0  0  0  0  0  0  0
   34.5230   40.9280   -3.5110 H   0  0  0  0  0  0  0  0  0  0  0  0
   34.1850   41.6120   -6.1380 C   0  0  1  0  0  3  0  0  0  0  0  0
   34.3360   42.6500   -7.5920 S   0  0  0  0  0  1  0  0  0  0  0  0
   34.2320   40.1230   -6.4780 C   0  0  0  0  0  2  0  0  0  0  0  0
   34.7400   39.9020   -7.8780 C   0  0  0  0  0  2  0  0  0  0  0  0
   34.7930   38.4220   -8.1510 C   0  0  0  0  0  2  0  0  0  0  0  0
   33.4350   37.7870   -8.0480 C   0  0  0  0  0  2  0  0  0  0  0  0
   33.4510   36.5300   -8.9120 C   0  0  0  0  0  1  0  0  0  0  0  0
   37.4700   41.2040   -2.9310 C   0  0  0  0  0  0  0  0  0  0  0  0
   37.4140   39.8890   -3.4400 N   0  0  0  0  0  0  0  0  0  0  0  0
   36.5090   39.5160   -3.7240 H   0  0  0  0  0  0  0  0  0  0  0  0
   38.5630   41.6590   -2.5390 O   0  0  0  0  0  0  0  0  0  0  0  0
   38.5840   39.0410   -3.5790 C   0  0  1  0  0  3  0  0  0  0  0  0
   38.6190   38.1680   -2.3200 C   0  0  0  0  0  1  0  0  0  0  0  0
   38.3990   38.1360   -4.7520 C   0  0  0  0  0  0  0  0  0  0  0  0
   37.3560   38.2000   -5.4480 O   0  0  0  0  0  0  0  0  0  0  0  0
   39.3630   37.2060   -5.1110 O   0  0  0  0  0  1  0  0  0  0  0  0
   35.6050   42.0610   -1.5020 C   0  0  0  0  0  2  0  0  0  0  0  0
   36.4700   42.5910   -0.4460 C   0  0  0  0  0  0  0  0  0  0  0  0
   37.0160   43.8450   -0.5560 C   0  0  0  0  0  3  0  0  0  0  0  0
   37.8450   44.3590    0.4450 C   0  0  0  0  0  3  0  0  0  0  0  0
   38.1360   43.6150    1.5690 C   0  0  0  0  0  3  0  0  0  0  0  0
   37.5890   42.3600    1.6780 C   0  0  0  0  0  3  0  0  0  0  0  0
   36.7740   41.8690    0.6820 C   0  0  0  0  0  3  0  0  0  0  0  0
  1 22  1  1  0  0  0
  2  5  1  0  0  0  0
  2  1  1  0  0  0  0
  3  2  1  0  0  0  0
  4  3  2  0  0  0  0
  6  7  1  6  0  0  0
  6  3  1  0  0  0  0
  8  6  1  0  0  0  0
  9  8  1  0  0  0  0
 10 11  1  0  0  0  0
 10  9  1  0  0  0  0
 12 11  1  0  0  0  0
 13  1  1  0  0  0  0
 13 16  2  0  0  0  0
 14 13  1  0  0  0  0
 15 14  1  0  0  0  0
 17 14  1  0  0  0  0
 17 18  1  1  0  0  0
 19 17  1  0  0  0  0
 20 19  2  0  0  0  0
 21 19  1  0  0  0  0
 22 23  1  0  0  0  0
 23 28  1  0  0  0  0
 24 23  2  0  0  0  0
 24 25  1  0  0  0  0
 25 26  2  0  0  0  0
 26 27  1  0  0  0  0
 28 27  2  0  0  0  0
M  END
>  <minimizedAffinity>
-8.10644436

>  <minimizedRMSD>
0.716635585

$$$$
