
 OpenBabel04082420113D

 15 16  0  0  1  0  0  0  0  0999 V2000
   17.2590   16.8600   18.9390 C   0  0  0  0  0  3  0  0  0  0  0  0
   16.2350   16.6080   19.8300 C   0  0  0  0  0  0  0  0  0  0  0  0
   14.9300   16.1230   19.3160 C   0  0  0  0  0  1  0  0  0  0  0  0
   16.3640   16.7890   21.1950 C   0  0  0  0  0  0  0  0  0  0  0  0
   15.3620   16.5430   22.0580 N   0  0  0  0  0  0  0  0  0  0  0  0
   14.4740   16.2100   21.6830 H   0  0  0  0  0  0  0  0  0  0  0  0
   15.4670   16.7130   23.3880 C   0  0  1  0  0  3  0  0  0  0  0  0
   14.3950   16.4470   24.2830 N   0  0  0  0  0  1  0  0  0  0  0  0
   16.6530   17.1550   23.8540 N   0  0  0  0  0  0  0  0  0  0  0  0
   16.7700   17.2960   24.8580 H   0  0  0  0  0  0  0  0  0  0  0  0
   17.6920   17.4170   23.0290 C   0  0  0  0  0  0  0  0  0  0  0  0
   18.7870   17.8270   23.4840 O   0  0  0  0  0  0  0  0  0  0  0  0
   17.5810   17.2420   21.6620 C   0  0  0  0  0  0  0  0  0  0  0  0
   18.6150   17.4970   20.7890 C   0  0  0  0  0  3  0  0  0  0  0  0
   18.4700   17.3110   19.4210 C   0  0  0  0  0  3  0  0  0  0  0  0
  1 15  2  0  0  0  0
  1  2  1  0  0  0  0
  2  4  2  0  0  0  0
  3  2  1  0  0  0  0
  4 13  1  0  0  0  0
  4  5  1  0  0  0  0
  5  7  1  0  0  0  0
  6  5  1  0  0  0  0
  7  9  1  0  0  0  0
  7  8  1  1  0  0  0
  9 10  1  0  0  0  0
 11 12  2  0  0  0  0
 11  9  1  0  0  0  0
 13 11  1  0  0  0  0
 14 13  2  0  0  0  0
 15 14  1  0  0  0  0
M  END
>  <minimizedAffinity>
-6.52064276

>  <minimizedRMSD>
0.156067982

$$$$
