
 OpenBabel04082420143D

 32 35  0  0  0  0  0  0  0  0999 V2000
   23.0640   15.7500   33.1110 C   0  0  0  0  0  0  0  0  0  0  0  0
   23.5330   16.8300   33.7870 C   0  0  0  0  0  3  0  0  0  0  0  0
   22.7400   17.9040   34.1060 C   0  0  0  0  0  0  0  0  0  0  0  0
   21.4020   17.8740   33.7160 C   0  0  0  0  0  0  0  0  0  0  0  0
   20.5090   18.8700   33.9790 C   0  0  0  0  0  3  0  0  0  0  0  0
   19.1570   18.8430   33.5960 C   0  0  0  0  0  0  0  0  0  0  0  0
   18.7320   17.7320   32.9140 C   0  0  0  0  0  3  0  0  0  0  0  0
   19.5780   16.6890   32.6150 C   0  0  0  0  0  3  0  0  0  0  0  0
   20.8980   16.7750   33.0210 C   0  0  0  0  0  0  0  0  0  0  0  0
   21.7490   15.7330   32.7340 C   0  0  0  0  0  3  0  0  0  0  0  0
   23.8890   14.5730   32.7530 C   0  0  0  0  0  0  0  0  0  0  0  0
   24.3010   14.3090   31.4420 N   0  0  0  0  0  2  0  0  0  0  0  0
   24.2200   13.8020   33.6620 O   0  0  0  0  0  0  0  0  0  0  0  0
   25.1880   13.2960   31.0000 C   0  0  0  0  0  0  0  0  0  0  0  0
   25.9860   13.3720   29.8850 C   0  0  0  0  0  3  0  0  0  0  0  0
   26.8260   12.3010   29.5520 C   0  0  0  0  0  3  0  0  0  0  0  0
   26.9000   11.1470   30.2940 C   0  0  0  0  0  0  0  0  0  0  0  0
   26.1000   11.0680   31.4110 C   0  0  0  0  0  3  0  0  0  0  0  0
   25.2750   12.1110   31.7480 C   0  0  0  0  0  3  0  0  0  0  0  0
   27.8110   10.0170   29.9280 C   0  0  0  0  0  2  0  0  0  0  0  0
   27.5140    8.8860   30.8380 N   0  0  0  0  0  1  0  0  0  0  0  0
   23.2330   19.0450   34.7700 N   0  0  0  0  0  2  0  0  0  0  0  0
   23.7920   19.1020   36.0690 C   0  0  0  0  0  0  0  0  0  0  0  0
   23.8220   18.0010   36.8720 N   0  0  0  0  0  0  0  0  0  0  0  0
   24.3590   17.9770   38.0910 C   0  0  0  0  0  3  0  0  0  0  0  0
   24.9420   19.1360   38.6190 C   0  0  0  0  0  3  0  0  0  0  0  0
   24.9100   20.2420   37.8060 C   0  0  0  0  0  2  0  0  0  0  0  0
   24.3510   20.1930   36.5890 N   0  0  0  0  0  0  0  0  0  0  0  0
   18.2990   19.9650   33.9330 C   0  0  0  0  0  0  0  0  0  0  0  0
   17.0490   19.8370   34.0860 N   0  0  0  0  0  2  0  0  0  0  0  0
   16.4530   20.6710   34.3600 H   0  0  0  0  0  0  0  0  0  0  0  0
   18.8880   21.2490   34.0880 N   0  0  0  0  0  2  0  0  0  0  0  0
  1  2  1  0  0  0  0
  2  3  2  0  0  0  0
  3 22  1  0  0  0  0
  4  5  1  0  0  0  0
  4  3  1  0  0  0  0
  6 29  1  0  0  0  0
  6  5  2  0  0  0  0
  7  6  1  0  0  0  0
  8  7  2  0  0  0  0
  8  9  1  0  0  0  0
  9  4  2  0  0  0  0
 10  9  1  0  0  0  0
 10  1  2  0  0  0  0
 11  1  1  0  0  0  0
 11 13  2  0  0  0  0
 12 11  1  0  0  0  0
 14 12  1  0  0  0  0
 14 19  1  0  0  0  0
 15 14  2  0  0  0  0
 16 15  1  0  0  0  0
 16 17  2  0  0  0  0
 17 18  1  0  0  0  0
 18 19  2  0  0  0  0
 20 17  1  0  0  0  0
 20 21  1  0  0  0  0
 22 23  1  0  0  0  0
 23 28  2  0  0  0  0
 23 24  2  0  0  0  0
 24 25  1  0  0  0  0
 25 26  2  0  0  0  0
 27 26  1  0  0  0  0
 28 27  1  0  0  0  0
 29 30  1  0  0  0  0
 29 32  2  0  0  0  0
 30 31  1  0  0  0  0
M  END
>  <minimizedAffinity>
-8.22836494

>  <minimizedRMSD>
0.860276282

$$$$
