
 OpenBabel04082419553D

 21 22  0  0  1  0  0  0  0  0999 V2000
   20.7450   12.9240   57.5500 N   0  0  0  0  0  0  0  0  0  0  0  0
   21.9090   12.2610   57.5630 C   0  0  0  0  0  0  0  0  0  0  0  0
   21.9820   10.9210   57.5070 N   0  0  0  0  0  0  0  0  0  0  0  0
   22.8920   10.4590   57.5200 H   0  0  0  0  0  0  0  0  0  0  0  0
   19.5810   12.2250   57.4770 C   0  0  0  0  0  0  0  0  0  0  0  0
   22.9950   12.8950   57.6290 O   0  0  0  0  0  0  0  0  0  0  0  0
   19.6270   10.8600   57.4210 C   0  0  0  0  0  0  0  0  0  0  0  0
   20.8570   10.1870   57.4360 C   0  0  0  0  0  0  0  0  0  0  0  0
   20.8860    8.9290   57.3830 O   0  0  0  0  0  0  0  0  0  0  0  0
   18.1820   12.6640   57.4110 C   0  0  0  0  0  2  0  0  0  0  0  0
   17.4180   11.4470   57.9040 C   0  0  0  0  0  2  0  0  0  0  0  0
   18.2420   10.2710   57.3550 C   0  0  0  0  0  2  0  0  0  0  0  0
   20.7080   14.3470   57.5880 C   0  0  0  0  0  2  0  0  0  0  0  0
   21.1380   14.9750   58.8800 C   0  0  1  0  0  3  0  0  0  0  0  0
   21.4650   16.4190   58.7140 C   0  0  0  0  0  0  0  0  0  0  0  0
   22.4530   16.7490   58.0100 O   0  0  0  0  0  0  0  0  0  0  0  0
   20.7290   17.4400   59.2990 O   0  0  0  0  0  1  0  0  0  0  0  0
   20.1670   14.8190   59.9640 N   0  0  0  0  0  4  0  0  0  0  0  0
   19.2520   15.1710   59.6810 H   0  0  0  0  0  0  0  0  0  0  0  0
   19.9360   13.8350   60.1020 H   0  0  0  0  0  0  0  0  0  0  0  0
   20.4590   15.2450   60.8440 H   0  0  0  0  0  0  0  0  0  0  0  0
  1  2  1  0  0  0  0
  1 13  1  0  0  0  0
  2  6  2  0  0  0  0
  3  4  1  0  0  0  0
  3  2  1  0  0  0  0
  5  1  1  0  0  0  0
  7  8  1  0  0  0  0
  7  5  2  0  0  0  0
  8  3  1  0  0  0  0
  9  8  2  0  0  0  0
 10  5  1  0  0  0  0
 10 11  1  0  0  0  0
 12  7  1  0  0  0  0
 12 11  1  0  0  0  0
 14 13  1  6  0  0  0
 14 18  1  0  0  0  0
 15 14  1  0  0  0  0
 15 17  1  0  0  0  0
 16 15  2  0  0  0  0
 18 20  1  0  0  0  0
 18 21  1  0  0  0  0
 19 18  1  0  0  0  0
M  END
>  <minimizedAffinity>
-8.2840147

>  <minimizedRMSD>
0.301921695

$$$$
