
 OpenBabel04082420143D

 12 12  0  0  0  0  0  0  0  0999 V2000
   45.6290   19.7740   50.9000 C   0  0  0  0  0  0  0  0  0  0  0  0
   46.3890   20.6720   51.5910 C   0  0  0  0  0  3  0  0  0  0  0  0
   46.7180   21.8760   50.9810 C   0  0  0  0  0  3  0  0  0  0  0  0
   46.2920   22.1720   49.7040 C   0  0  0  0  0  3  0  0  0  0  0  0
   45.5290   21.2540   49.0300 C   0  0  0  0  0  3  0  0  0  0  0  0
   45.1890   20.0380   49.6270 C   0  0  0  0  0  3  0  0  0  0  0  0
   45.2600   18.4860   51.5110 C   0  0  0  0  0  2  0  0  0  0  0  0
   45.5050   18.4510   52.9960 C   0  0  0  0  0  2  0  0  0  0  0  0
   46.0490   17.1310   53.3570 N   0  0  0  0  0  4  0  0  0  0  0  0
   45.4540   16.3650   53.0420 H   0  0  0  0  0  0  0  0  0  0  0  0
   46.8830   16.8920   52.8190 H   0  0  0  0  0  0  0  0  0  0  0  0
   46.2160   17.1060   54.3620 H   0  0  0  0  0  0  0  0  0  0  0  0
  1  7  1  0  0  0  0
  1  2  1  0  0  0  0
  3  2  2  0  0  0  0
  4  3  1  0  0  0  0
  5  6  1  0  0  0  0
  5  4  2  0  0  0  0
  6  1  2  0  0  0  0
  7  8  1  0  0  0  0
  8  9  1  0  0  0  0
  9 12  1  0  0  0  0
 10  9  1  0  0  0  0
 11  9  1  0  0  0  0
M  END
>  <minimizedAffinity>
-3.23585916

>  <minimizedRMSD>
0.619490206

$$$$
