
 OpenBabel04082420003D

 25 25  0  0  1  0  0  0  0  0999 V2000
   69.1000   -6.1990    9.1840 O   0  0  0  0  0  0  0  0  0  0  0  0
   69.8230   -5.1370    9.1030 N   0  0  0  0  0  0  0  0  0  0  0  0
   70.1960   -4.6060    9.8910 H   0  0  0  0  0  0  0  0  0  0  0  0
   70.0020   -4.8440    7.7820 C   0  0  1  0  0  3  0  0  0  0  0  0
   69.3370   -5.8050    7.0540 C   0  0  0  0  0  0  0  0  0  0  0  0
   68.7650   -6.6640    7.9900 C   0  0  0  0  0  0  0  0  0  0  0  0
   69.2600   -5.9040    5.6110 C   0  0  0  0  0  2  0  0  0  0  0  0
   68.5540   -4.8140    4.8810 C   0  0  2  0  0  3  0  0  0  0  0  0
   67.0990   -5.0080    4.7790 N   0  0  0  0  0  4  0  0  0  0  0  0
   66.8870   -5.9140    4.3640 H   0  0  0  0  0  0  0  0  0  0  0  0
   66.6900   -5.1420    5.7040 H   0  0  0  0  0  0  0  0  0  0  0  0
   66.6150   -4.2610    4.2800 H   0  0  0  0  0  0  0  0  0  0  0  0
   69.0490   -4.7390    3.4710 C   0  0  0  0  0  0  0  0  0  0  0  0
   70.3220   -4.4130    3.1090 O   0  0  0  0  0  1  0  0  0  0  0  0
   68.1920   -5.0020    2.5690 O   0  0  0  0  0  0  0  0  0  0  0  0
   70.7270   -3.7670    7.3010 O   0  0  0  0  0  0  0  0  0  0  0  0
   71.2870   -2.8480    8.2180 C   0  0  0  0  0  2  0  0  0  0  0  0
   72.8480   -2.2010    7.5710 P   0  0  0  0  0  0  0  0  0  0  0  0
   72.5650   -1.2540    6.4270 O   0  0  0  0  0  0  0  0  0  0  0  0
   73.6450   -1.4040    8.8470 O   0  0  0  0  0  1  0  0  0  0  0  0
   73.8580   -3.4780    7.0870 O   0  0  0  0  0  1  0  0  0  0  0  0
   67.9580   -7.8390    7.6920 C   0  0  0  0  0  0  0  0  0  0  0  0
   68.7260   -9.1130    7.4800 C   0  0  0  0  0  1  0  0  0  0  0  0
   67.1490   -8.1680    8.9780 C   0  0  0  0  0  1  0  0  0  0  0  0
   66.8590   -7.6290    6.7050 C   0  0  0  0  0  1  0  0  0  0  0  0
  2  1  1  0  0  0  0
  2  3  1  0  0  0  0
  4 16  1  1  0  0  0
  4  2  1  0  0  0  0
  5  4  1  0  0  0  0
  5  6  2  0  0  0  0
  6  1  1  0  0  0  0
  7  5  1  0  0  0  0
  8  7  1  6  0  0  0
  9  8  1  0  0  0  0
  9 11  1  0  0  0  0
 10  9  1  0  0  0  0
 12  9  1  0  0  0  0
 13  8  1  0  0  0  0
 14 13  1  0  0  0  0
 15 13  2  0  0  0  0
 16 17  1  0  0  0  0
 18 17  1  0  0  0  0
 18 20  1  0  0  0  0
 19 18  2  0  0  0  0
 21 18  1  0  0  0  0
 22  6  1  0  0  0  0
 22 24  1  0  0  0  0
 23 22  1  0  0  0  0
 25 22  1  0  0  0  0
M  END
>  <minimizedAffinity>
-5.33908844

>  <minimizedRMSD>
0.565788686

$$$$
