
 OpenBabel04082420163D

 24 25  0  0  1  0  0  0  0  0999 V2000
   38.5930   -0.1740   12.0500 C   0  0  1  0  0  3  0  0  0  0  0  0
   38.2420   -1.5090   12.3580 O   0  0  0  0  0  0  0  0  0  0  0  0
   37.2850    0.5240   12.3050 C   0  0  2  0  0  3  0  0  0  0  0  0
   36.2900   -0.4130   11.7000 C   0  0  1  0  0  3  0  0  0  0  0  0
   37.1100   -1.6950   11.5740 C   0  0  2  0  0  3  0  0  0  0  0  0
   36.2860   -2.7720   12.0140 N   0  0  0  0  0  0  0  0  0  0  0  0
   35.3620   -3.2680   11.1840 C   0  0  0  0  0  0  0  0  0  0  0  0
   35.2330   -2.7740   10.0220 O   0  0  0  0  0  0  0  0  0  0  0  0
   34.5290   -4.2770   11.4830 N   0  0  0  0  0  0  0  0  0  0  0  0
   34.6010   -4.8640   12.7090 C   0  0  0  0  0  0  0  0  0  0  0  0
   33.8490   -4.6020   10.7970 H   0  0  0  0  0  0  0  0  0  0  0  0
   33.8080   -5.8000   12.9450 O   0  0  0  0  0  0  0  0  0  0  0  0
   35.5370   -4.3760   13.5740 C   0  0  0  0  0  3  0  0  0  0  0  0
   36.3780   -3.3330   13.2320 C   0  0  0  0  0  3  0  0  0  0  0  0
   35.1850   -0.5800   12.5010 O   0  0  0  0  0  0  0  0  0  0  0  0
   34.5520   -1.1760   12.1160 H   0  0  0  0  0  0  0  0  0  0  0  0
   39.6230    0.2880   13.0270 C   0  0  0  0  0  2  0  0  0  0  0  0
   39.2240    0.2440   14.3390 O   0  0  0  0  0  0  0  0  0  0  0  0
   39.8790    0.5380   14.9620 H   0  0  0  0  0  0  0  0  0  0  0  0
   37.2160    1.8100   11.9000 O   0  0  0  0  0  0  0  0  0  0  0  0
   36.8520    2.9320   13.0840 P   0  0  0  0  0  0  0  0  0  0  0  0
   35.3710    2.6050   13.8470 O   0  0  0  0  0  1  0  0  0  0  0  0
   36.6700    4.2790   12.3770 O   0  0  0  0  0  0  0  0  0  0  0  0
   38.0550    3.1330   14.2230 O   0  0  0  0  0  1  0  0  0  0  0  0
  1  3  1  0  0  0  0
  1  2  1  0  0  0  0
  1 17  1  1  0  0  0
  3 20  1  6  0  0  0
  4  3  1  0  0  0  0
  4 15  1  1  0  0  0
  5  4  1  0  0  0  0
  5  6  1  1  0  0  0
  5  2  1  0  0  0  0
  6 14  1  0  0  0  0
  7  9  1  0  0  0  0
  7  6  1  0  0  0  0
  8  7  2  0  0  0  0
  9 10  1  0  0  0  0
 10 12  2  0  0  0  0
 10 13  1  0  0  0  0
 11  9  1  0  0  0  0
 14 13  2  0  0  0  0
 16 15  1  0  0  0  0
 17 18  1  0  0  0  0
 18 19  1  0  0  0  0
 20 21  1  0  0  0  0
 21 22  1  0  0  0  0
 21 24  1  0  0  0  0
 23 21  2  0  0  0  0
M  END
>  <minimizedAffinity>
-5.09657335

>  <minimizedRMSD>
0.946521819

$$$$
