
 OpenBabel04082420123D

 27 29  0  0  1  0  0  0  0  0999 V2000
   58.4320   71.9580   21.7910 C   0  0  1  0  0  3  0  0  0  0  0  0
   57.9300   72.1660   20.4520 N   0  0  0  0  0  4  0  0  0  0  0  0
   57.1070   71.6000   20.2440 H   0  0  0  0  0  0  0  0  0  0  0  0
   58.5420   71.7800   19.7340 H   0  0  0  0  0  0  0  0  0  0  0  0
   57.7150   74.2250   21.6260 C   0  0  2  0  0  3  0  0  0  0  0  0
   58.2840   73.2130   22.5650 C   0  0  2  0  0  3  0  0  0  0  0  0
   57.6970   73.5630   20.2930 C   0  0  2  0  0  3  0  0  0  0  0  0
   56.5080   73.8900   19.4850 C   0  0  0  0  0  0  0  0  0  0  0  0
   56.2890   73.6020   18.1510 C   0  0  0  0  0  2  0  0  0  0  0  0
   55.0840   74.0610   17.7720 N   0  0  0  0  0  0  0  0  0  0  0  0
   54.4850   74.6530   18.8180 C   0  0  0  0  0  0  0  0  0  0  0  0
   54.6870   73.9740   16.8370 H   0  0  0  0  0  0  0  0  0  0  0  0
   53.2700   75.2900   19.0220 C   0  0  0  0  0  0  0  0  0  0  0  0
   55.3570   74.5580   19.9020 C   0  0  0  0  0  0  0  0  0  0  0  0
   52.3810   75.3860   17.9210 N   0  0  0  0  0  1  0  0  0  0  0  0
   52.9230   75.8030   20.2030 N   0  0  0  0  0  0  0  0  0  0  0  0
   53.7710   75.7040   21.2310 C   0  0  0  0  0  2  0  0  0  0  0  0
   52.0210   76.2650   20.3200 H   0  0  0  0  0  0  0  0  0  0  0  0
   54.9520   75.0930   21.0590 N   0  0  0  0  0  0  0  0  0  0  0  0
   55.5800   75.0300   21.8600 H   0  0  0  0  0  0  0  0  0  0  0  0
   58.4380   75.4210   21.5930 O   0  0  0  0  0  0  0  0  0  0  0  0
   58.0750   76.0650   20.9960 H   0  0  0  0  0  0  0  0  0  0  0  0
   57.6780   70.7860   22.3830 C   0  0  0  0  0  2  0  0  0  0  0  0
   55.9420   70.7850   21.8810 S   0  0  0  0  0  0  0  0  0  0  0  0
   55.0220   69.7450   23.0360 C   0  0  0  0  0  1  0  0  0  0  0  0
   59.5620   73.6660   22.9350 O   0  0  0  0  0  0  0  0  0  0  0  0
   59.4670   74.4710   23.4290 H   0  0  0  0  0  0  0  0  0  0  0  0
  1 23  1  1  0  0  0
  1  6  1  0  0  0  0
  2  1  1  0  0  0  0
  3  2  1  0  0  0  0
  4  2  1  0  0  0  0
  5 21  1  6  0  0  0
  5  6  1  0  0  0  0
  6 26  1  6  0  0  0
  7  8  1  1  0  0  0
  7  2  1  0  0  0  0
  7  5  1  0  0  0  0
  8 14  2  0  0  0  0
  9  8  1  0  0  0  0
 10  9  1  0  0  0  0
 10 11  1  0  0  0  0
 11 13  2  0  0  0  0
 11 14  1  0  0  0  0
 12 10  1  0  0  0  0
 13 16  1  0  0  0  0
 14 19  1  0  0  0  0
 15 13  1  0  0  0  0
 16 18  1  0  0  0  0
 16 17  1  0  0  0  0
 19 17  1  0  0  0  0
 19 20  1  0  0  0  0
 22 21  1  0  0  0  0
 24 23  1  0  0  0  0
 24 25  1  0  0  0  0
 26 27  1  0  0  0  0
M  END
>  <minimizedAffinity>
-8.412076

>  <minimizedRMSD>
0.485141188

$$$$
