
 OpenBabel04082419533D

 23 25  0  0  1  0  0  0  0  0999 V2000
    8.2280   10.1440    4.6890 S   0  0  0  0  0  0  0  0  0  0  0  0
    7.6030    9.4340    5.8990 O   0  0  0  0  0  0  0  0  0  0  0  0
    8.3520   11.5620    5.1950 O   0  0  0  0  0  0  0  0  0  0  0  0
    7.0690    9.9920    3.4120 C   0  0  0  0  0  0  0  0  0  0  0  0
    5.7040    9.9050    3.5740 C   0  0  0  0  0  0  0  0  0  0  0  0
    4.8000    9.8660    2.5240 C   0  0  0  0  0  0  0  0  0  0  0  0
    5.1950    9.8250    4.8290 C   0  0  0  0  0  3  0  0  0  0  0  0
    5.2690    9.9160    1.2220 C   0  0  0  0  0  2  0  0  0  0  0  0
    3.4570    9.7570    2.7890 C   0  0  0  0  0  3  0  0  0  0  0  0
    6.6060   10.0000    1.0070 C   0  0  0  0  0  3  0  0  0  0  0  0
    7.4720   10.0360    2.0700 C   0  0  0  0  0  3  0  0  0  0  0  0
    2.9810    9.6830    4.0430 N   0  0  0  0  0  0  0  0  0  0  0  0
    3.8260    9.7130    5.0900 C   0  0  0  0  0  3  0  0  0  0  0  0
    1.9780    9.6030    4.2030 H   0  0  0  0  0  0  0  0  0  0  0  0
    9.7240    9.3970    4.4450 N   0  0  0  0  0  0  0  0  0  0  0  0
    9.9250    8.0610    4.7760 C   0  0  0  0  0  2  0  0  0  0  0  0
   11.3600    7.6780    4.3830 C   0  0  0  0  0  2  0  0  0  0  0  0
   11.3470    7.5790    2.9410 N   0  0  0  0  0  4  0  0  0  0  0  0
   10.7970    8.7400    2.3120 C   0  0  0  0  0  2  0  0  0  0  0  0
   10.8630    6.7340    2.6370 H   0  0  0  0  0  0  0  0  0  0  0  0
   12.2790    7.3750    2.5800 H   0  0  0  0  0  0  0  0  0  0  0  0
   10.3420    9.8110    3.2370 C   0  0  2  0  0  3  0  0  0  0  0  0
   11.5630   10.6540    3.5970 C   0  0  0  0  0  1  0  0  0  0  0  0
  1  3  2  0  0  0  0
  1  2  2  0  0  0  0
  4  5  2  0  0  0  0
  4  1  1  0  0  0  0
  5  7  1  0  0  0  0
  6  9  2  0  0  0  0
  6  5  1  0  0  0  0
  7 13  2  0  0  0  0
  8  6  1  0  0  0  0
  9 12  1  0  0  0  0
 10  8  1  0  0  0  0
 10 11  2  0  0  0  0
 11  4  1  0  0  0  0
 12 14  1  0  0  0  0
 12 13  1  0  0  0  0
 15  1  1  0  0  0  0
 15 16  1  0  0  0  0
 17 16  1  0  0  0  0
 18 17  1  0  0  0  0
 19 18  1  0  0  0  0
 19 22  1  0  0  0  0
 20 18  1  0  0  0  0
 21 18  1  0  0  0  0
 22 23  1  1  0  0  0
 22 15  1  0  0  0  0
M  END
>  <minimizedAffinity>
-7.89976931

>  <minimizedRMSD>
0.5538131

$$$$
