
 OpenBabel04082420133D

 31 33  0  0  0  0  0  0  0  0999 V2000
    8.5980    8.1050    4.9920 N   0  0  0  0  0  0  0  0  0  0  0  0
    8.3260    7.6660    5.8720 H   0  0  0  0  0  0  0  0  0  0  0  0
    8.3400    9.7480    4.6030 S   0  0  0  0  0  0  0  0  0  0  0  0
    9.6300   10.5210    4.5330 O   0  0  0  0  0  0  0  0  0  0  0  0
    7.6070   10.3510    5.7970 O   0  0  0  0  0  0  0  0  0  0  0  0
    7.3410   10.0150    3.2110 C   0  0  0  0  0  0  0  0  0  0  0  0
    5.9680    9.9460    3.3490 C   0  0  0  0  0  0  0  0  0  0  0  0
    5.1620   10.2190    2.2430 C   0  0  0  0  0  0  0  0  0  0  0  0
    5.4340    9.5970    4.5680 C   0  0  0  0  0  3  0  0  0  0  0  0
    5.7290   10.5510    1.0340 C   0  0  0  0  0  2  0  0  0  0  0  0
    3.7890   10.1320    2.4030 C   0  0  0  0  0  3  0  0  0  0  0  0
    7.0900   10.6070    0.9340 C   0  0  0  0  0  3  0  0  0  0  0  0
    7.9130   10.3480    1.9920 C   0  0  0  0  0  3  0  0  0  0  0  0
    3.2790    9.7920    3.5950 N   0  0  0  0  0  0  0  0  0  0  0  0
    4.0510    9.5260    4.6620 C   0  0  0  0  0  3  0  0  0  0  0  0
    2.2650    9.7320    3.6950 H   0  0  0  0  0  0  0  0  0  0  0  0
    9.2690    7.4110    3.8800 C   0  0  0  0  0  2  0  0  0  0  0  0
   10.6810    7.8990    3.7190 C   0  0  0  0  0  2  0  0  0  0  0  0
   11.4450    6.8380    3.1000 N   0  0  0  0  0  4  0  0  0  0  0  0
   11.3750    5.9720    3.6340 H   0  0  0  0  0  0  0  0  0  0  0  0
   11.0090    6.5280    2.2310 H   0  0  0  0  0  0  0  0  0  0  0  0
   12.8420    7.2190    2.8870 C   0  0  0  0  0  2  0  0  0  0  0  0
   12.9910    8.2830    1.9260 C   0  0  0  0  0  2  0  0  0  0  0  0
   14.0150    8.8680    1.4460 C   0  0  0  0  0  2  0  0  0  0  0  0
   14.2100   10.1320    0.8270 C   0  0  0  0  0  0  0  0  0  0  0  0
   13.1580   11.0560    0.8060 C   0  0  0  0  0  3  0  0  0  0  0  0
   13.2630   12.2550    0.1730 C   0  0  0  0  0  3  0  0  0  0  0  0
   14.4120   12.6240   -0.4820 C   0  0  0  0  0  0  0  0  0  0  0  0
   15.4670   11.7510   -0.4860 C   0  0  0  0  0  3  0  0  0  0  0  0
   14.4730   14.3230   -1.3440 Br  0  0  0  0  0  0  0  0  0  0  0  0
   15.3380   10.5140    0.1770 C   0  0  0  0  0  3  0  0  0  0  0  0
  1  2  1  0  0  0  0
  3  1  1  0  0  0  0
  3  5  2  0  0  0  0
  4  3  2  0  0  0  0
  6  7  2  0  0  0  0
  6  3  1  0  0  0  0
  7  9  1  0  0  0  0
  8 11  2  0  0  0  0
  8  7  1  0  0  0  0
  9 15  2  0  0  0  0
 10  8  1  0  0  0  0
 11 14  1  0  0  0  0
 12 10  1  0  0  0  0
 12 13  2  0  0  0  0
 13  6  1  0  0  0  0
 14 16  1  0  0  0  0
 14 15  1  0  0  0  0
 17  1  1  0  0  0  0
 18 17  1  0  0  0  0
 19 20  1  0  0  0  0
 19 18  1  0  0  0  0
 21 19  1  0  0  0  0
 22 19  1  0  0  0  0
 23 22  1  0  0  0  0
 24 23  1  0  0  0  0
 25 24  1  0  0  0  0
 26 25  1  0  0  0  0
 27 26  2  0  0  0  0
 28 27  1  0  0  0  0
 29 28  2  0  0  0  0
 29 31  1  0  0  0  0
 30 28  1  0  0  0  0
 31 25  2  0  0  0  0
M  END
>  <minimizedAffinity>
-8.59551048

>  <minimizedRMSD>
0.934451401

$$$$
