
 OpenBabel04082420153D

 42 46  0  0  1  0  0  0  0  0999 V2000
    7.0080   27.7170   53.8550 N   0  0  0  0  0  0  0  0  0  0  0  0
    6.0140   27.2030   53.1270 N   0  0  0  0  0  0  0  0  0  0  0  0
    6.1360   26.7600   52.2160 H   0  0  0  0  0  0  0  0  0  0  0  0
    4.8370   27.3440   53.7440 C   0  0  2  0  0  3  0  0  0  0  0  0
    5.1000   27.9860   54.9370 C   0  0  0  0  0  3  0  0  0  0  0  0
    6.4600   28.2070   54.9790 C   0  0  0  0  0  0  0  0  0  0  0  0
    7.2370   28.8690   56.0630 C   0  0  0  0  0  0  0  0  0  0  0  0
    8.4310   28.5690   56.2520 O   0  0  0  0  0  0  0  0  0  0  0  0
    6.6430   29.8380   56.8860 N   0  0  0  0  0  0  0  0  0  0  0  0
    5.6230   29.8220   56.9000 H   0  0  0  0  0  0  0  0  0  0  0  0
    7.2310   30.8280   57.6940 C   0  0  0  0  0  0  0  0  0  0  0  0
    7.9220   30.6380   58.8520 C   0  0  0  0  0  0  0  0  0  0  0  0
    8.4390   31.7020   59.6150 C   0  0  0  0  0  3  0  0  0  0  0  0
    8.1820   29.4090   59.3360 F   0  0  0  0  0  0  0  0  0  0  0  0
    8.2720   32.9990   59.2270 C   0  0  0  0  0  0  0  0  0  0  0  0
    7.5780   33.2180   58.0570 C   0  0  0  0  0  3  0  0  0  0  0  0
    7.0790   32.1790   57.3230 C   0  0  0  0  0  3  0  0  0  0  0  0
    8.7960   34.0800   60.0020 N   0  0  0  0  0  0  0  0  0  0  0  0
   10.1070   34.3630   60.1000 C   0  0  0  0  0  3  0  0  0  0  0  0
   10.2860   35.4690   60.9240 C   0  0  0  0  0  3  0  0  0  0  0  0
    9.0650   35.8350   61.3090 N   0  0  0  0  0  0  0  0  0  0  0  0
    8.1640   34.9850   60.7450 C   0  0  1  0  0  3  0  0  0  0  0  0
    8.8430   36.6180   61.9220 H   0  0  0  0  0  0  0  0  0  0  0  0
    6.7100   35.0660   60.9340 C   0  0  0  0  0  2  0  0  0  0  0  0
    6.3600   34.8980   62.3460 N   0  0  0  0  0  0  0  0  0  0  0  0
    6.5460   33.5210   62.6890 C   0  0  0  0  0  1  0  0  0  0  0  0
    4.9490   35.2570   62.4820 C   0  0  0  0  0  1  0  0  0  0  0  0
    8.3930   27.7590   53.5400 C   0  0  0  0  0  0  0  0  0  0  0  0
    9.2380   26.9110   54.2230 C   0  0  0  0  0  3  0  0  0  0  0  0
   10.6130   26.9050   53.9570 C   0  0  0  0  0  3  0  0  0  0  0  0
   11.1490   27.7460   53.0080 C   0  0  0  0  0  0  0  0  0  0  0  0
   12.3750   27.9390   52.5730 O   0  0  0  0  0  0  0  0  0  0  0  0
   10.3030   28.6050   52.3140 C   0  0  0  0  0  0  0  0  0  0  0  0
   12.3880   28.8640   51.6420 N   0  0  0  0  0  0  0  0  0  0  0  0
   11.1320   29.2920   51.4610 C   0  0  0  0  0  0  0  0  0  0  0  0
   13.2130   29.1980   51.1430 H   0  0  0  0  0  0  0  0  0  0  0  0
   10.7170   30.2860   50.5470 N   0  0  0  0  0  1  0  0  0  0  0  0
    8.9550   28.5890   52.5960 C   0  0  0  0  0  2  0  0  0  0  0  0
    3.4910   26.9280   53.3120 C   0  0  0  0  0  0  0  0  0  0  0  0
    3.5630   26.0010   52.2940 F   0  0  0  0  0  0  0  0  0  0  0  0
    2.8380   28.0690   52.8520 F   0  0  0  0  0  0  0  0  0  0  0  0
    2.7470   26.4340   54.3650 F   0  0  0  0  0  0  0  0  0  0  0  0
  1  6  1  0  0  0  0
  2  4  1  0  0  0  0
  2  1  1  0  0  0  0
  3  2  1  0  0  0  0
  4 39  1  1  0  0  0
  4  5  1  0  0  0  0
  5  6  2  0  0  0  0
  6  7  1  0  0  0  0
  7  8  2  0  0  0  0
  7  9  1  0  0  0  0
  9 10  1  0  0  0  0
  9 11  1  0  0  0  0
 11 12  1  0  0  0  0
 12 14  1  0  0  0  0
 12 13  2  0  0  0  0
 15 13  1  0  0  0  0
 15 18  1  0  0  0  0
 16 15  2  0  0  0  0
 17 11  2  0  0  0  0
 17 16  1  0  0  0  0
 18 19  1  0  0  0  0
 18 22  1  0  0  0  0
 19 20  2  0  0  0  0
 20 21  1  0  0  0  0
 21 23  1  0  0  0  0
 22 24  1  6  0  0  0
 22 21  1  0  0  0  0
 24 25  1  0  0  0  0
 25 27  1  0  0  0  0
 25 26  1  0  0  0  0
 28  1  1  0  0  0  0
 28 29  2  0  0  0  0
 30 29  1  0  0  0  0
 31 30  2  0  0  0  0
 32 31  1  0  0  0  0
 33 38  1  0  0  0  0
 33 31  1  0  0  0  0
 34 32  1  0  0  0  0
 35 34  1  0  0  0  0
 35 33  2  0  0  0  0
 36 34  1  0  0  0  0
 37 35  1  0  0  0  0
 38 28  1  0  0  0  0
 39 42  1  0  0  0  0
 40 39  1  0  0  0  0
 41 39  1  0  0  0  0
M  END
>  <minimizedAffinity>
-11.2347651

>  <minimizedRMSD>
0.613056958

$$$$
