
 OpenBabel04082420043D

 18 18  0  0  1  0  0  0  0  0999 V2000
   36.1150   42.3620   -3.3440 C   0  0  1  0  0  3  0  0  0  0  0  0
   35.1280   42.2230   -4.4660 C   0  0  0  0  0  2  0  0  0  0  0  0
   35.8000   42.7850   -6.0460 S   0  0  0  0  0  1  0  0  0  0  0  0
   35.4350   42.8230   -2.0610 C   0  0  0  0  0  2  0  0  0  0  0  0
   36.4720   43.0460   -1.0020 C   0  0  0  0  0  0  0  0  0  0  0  0
   36.6080   42.1110    0.0210 C   0  0  0  0  0  3  0  0  0  0  0  0
   37.5440   42.2580    1.0160 C   0  0  0  0  0  3  0  0  0  0  0  0
   38.3780   43.3390    1.0270 C   0  0  0  0  0  3  0  0  0  0  0  0
   38.2540   44.2740    0.0210 C   0  0  0  0  0  3  0  0  0  0  0  0
   37.3110   44.1300   -0.9860 C   0  0  0  0  0  3  0  0  0  0  0  0
   36.7660   41.0720   -3.1570 N   0  0  0  0  0  0  0  0  0  0  0  0
   38.1660   40.9020   -3.2520 C   0  0  0  0  0  0  0  0  0  0  0  0
   38.8540   41.9240   -3.5420 O   0  0  0  0  0  0  0  0  0  0  0  0
   36.1880   40.2590   -2.9460 H   0  0  0  0  0  0  0  0  0  0  0  0
   38.8700   39.6110   -3.0370 C   0  0  0  0  0  2  0  0  0  0  0  0
   38.5370   38.5750   -4.0230 C   0  0  0  0  0  0  0  0  0  0  0  0
   37.6700   38.8180   -5.0790 O   0  0  0  0  0  0  0  0  0  0  0  0
   39.0460   37.4250   -3.9170 O   0  0  0  0  0  1  0  0  0  0  0  0
  1  2  1  6  0  0  0
  1 11  1  0  0  0  0
  1  4  1  0  0  0  0
  3  2  1  0  0  0  0
  4  5  1  0  0  0  0
  5 10  2  0  0  0  0
  5  6  1  0  0  0  0
  6  7  2  0  0  0  0
  7  8  1  0  0  0  0
  9  8  2  0  0  0  0
 10  9  1  0  0  0  0
 11 14  1  0  0  0  0
 12 11  1  0  0  0  0
 12 15  1  0  0  0  0
 13 12  2  0  0  0  0
 16 18  1  0  0  0  0
 16 15  1  0  0  0  0
 17 16  2  0  0  0  0
M  END
>  <minimizedAffinity>
-6.14691162

>  <minimizedRMSD>
0.695739329

$$$$
