
 OpenBabel04082419573D

 29 32  0  0  1  0  0  0  0  0999 V2000
   13.6200    0.5690    9.8470 C   0  0  0  0  0  2  0  0  0  0  0  0
   17.6390   -1.2020    9.1130 C   0  0  0  0  0  0  0  0  0  0  0  0
   14.7870    0.7940    9.2290 N   0  0  0  0  0  0  0  0  0  0  0  0
   14.9060    1.6600    8.7030 H   0  0  0  0  0  0  0  0  0  0  0  0
   15.8070   -0.0780    9.2740 C   0  0  1  0  0  3  0  0  0  0  0  0
   17.0110   -0.1150    8.7830 O   0  0  0  0  0  0  0  0  0  0  0  0
   15.6330   -1.2700   10.0020 C   0  0  0  0  0  0  0  0  0  0  0  0
   14.4120   -1.4690   10.6280 C   0  0  0  0  0  0  0  0  0  0  0  0
   13.3990   -0.5430   10.5500 N   0  0  0  0  0  0  0  0  0  0  0  0
   12.5050   -0.7000   11.0150 H   0  0  0  0  0  0  0  0  0  0  0  0
   16.7920   -1.9950    9.9070 C   0  0  0  0  0  0  0  0  0  0  0  0
   19.0020   -1.5710    8.7360 C   0  0  0  0  0  0  0  0  0  0  0  0
   19.6170   -2.6710    9.3250 C   0  0  0  0  0  3  0  0  0  0  0  0
   20.9010   -3.0360    8.9860 C   0  0  0  0  0  3  0  0  0  0  0  0
   21.6310   -2.3340    8.0520 C   0  0  0  0  0  3  0  0  0  0  0  0
   21.0280   -1.2400    7.4610 C   0  0  0  0  0  3  0  0  0  0  0  0
   19.7430   -0.8770    7.8040 C   0  0  0  0  0  3  0  0  0  0  0  0
   17.1130   -3.2840   10.4780 C   0  0  0  0  0  0  0  0  0  0  0  0
   17.6880   -3.4420   11.7400 C   0  0  0  0  0  3  0  0  0  0  0  0
   17.9660   -4.6710   12.2950 C   0  0  0  0  0  3  0  0  0  0  0  0
   17.6720   -5.8200   11.5910 C   0  0  0  0  0  3  0  0  0  0  0  0
   17.1050   -5.7060   10.3430 C   0  0  0  0  0  3  0  0  0  0  0  0
   16.8340   -4.4790    9.8010 C   0  0  0  0  0  3  0  0  0  0  0  0
   14.2050   -2.6550   11.3670 N   0  0  0  0  0  0  0  0  0  0  0  0
   14.8770   -3.4210   11.3140 H   0  0  0  0  0  0  0  0  0  0  0  0
   13.0290   -2.7690   12.2010 C   0  0  0  0  0  2  0  0  0  0  0  0
   13.2340   -2.2280   13.5940 C   0  0  0  0  0  2  0  0  0  0  0  0
   14.5190   -2.4790   14.0620 O   0  0  0  0  0  0  0  0  0  0  0  0
   14.6470   -2.1390   14.9380 H   0  0  0  0  0  0  0  0  0  0  0  0
  1  9  1  0  0  0  0
  2 11  2  0  0  0  0
  3  5  1  0  0  0  0
  3  1  1  0  0  0  0
  4  3  1  0  0  0  0
  5  6  1  1  0  0  0
  5  7  1  0  0  0  0
  6  2  1  0  0  0  0
  7  8  2  0  0  0  0
  8 24  1  0  0  0  0
  9  8  1  0  0  0  0
  9 10  1  0  0  0  0
 11  7  1  0  0  0  0
 11 18  1  0  0  0  0
 12  2  1  0  0  0  0
 12 13  1  0  0  0  0
 14 13  2  0  0  0  0
 15 14  1  0  0  0  0
 16 17  1  0  0  0  0
 16 15  2  0  0  0  0
 17 12  2  0  0  0  0
 18 19  1  0  0  0  0
 19 20  2  0  0  0  0
 21 20  1  0  0  0  0
 22 21  2  0  0  0  0
 23 22  1  0  0  0  0
 23 18  2  0  0  0  0
 24 26  1  0  0  0  0
 25 24  1  0  0  0  0
 26 27  1  0  0  0  0
 27 28  1  0  0  0  0
 28 29  1  0  0  0  0
M  END
>  <minimizedAffinity>
-8.00378799

>  <minimizedRMSD>
0.631774068

$$$$
