
 OpenBabel04082420003D

 26 29  0  0  0  0  0  0  0  0999 V2000
   26.7420   48.8400   -1.2730 C   0  0  0  0  0  0  0  0  0  0  0  0
   26.4410   47.5090   -1.2930 C   0  0  0  0  0  3  0  0  0  0  0  0
   26.0150   46.8370   -0.1800 C   0  0  0  0  0  3  0  0  0  0  0  0
   26.6040   49.4900   -0.0910 N   0  0  0  0  0  0  0  0  0  0  0  0
   26.8200   50.4850   -0.0370 H   0  0  0  0  0  0  0  0  0  0  0  0
   26.1960   48.8540    0.9840 N   0  0  0  0  0  0  0  0  0  0  0  0
   25.8890   47.5450    1.0050 C   0  0  0  0  0  0  0  0  0  0  0  0
   25.5050   47.1960    2.2550 N   0  0  0  0  0  0  0  0  0  0  0  0
   25.2180   46.2630    2.5530 H   0  0  0  0  0  0  0  0  0  0  0  0
   25.5660   48.2880    3.0390 C   0  0  0  0  0  3  0  0  0  0  0  0
   25.9980   49.3260    2.2460 C   0  0  0  0  0  0  0  0  0  0  0  0
   26.2220   50.7220    2.6510 C   0  0  0  0  0  0  0  0  0  0  0  0
   26.6280   51.6640    1.7330 C   0  0  0  0  0  3  0  0  0  0  0  0
   26.8460   52.9790    2.0930 C   0  0  0  0  0  0  0  0  0  0  0  0
   26.6600   53.3960    3.3970 C   0  0  0  0  0  3  0  0  0  0  0  0
   26.2520   52.4420    4.3070 C   0  0  0  0  0  3  0  0  0  0  0  0
   26.0360   51.1320    3.9530 C   0  0  0  0  0  3  0  0  0  0  0  0
   27.2710   53.9260    1.0950 C   0  0  0  0  0  0  0  0  0  0  0  0
   26.6150   53.9580   -0.2210 C   0  0  0  0  0  1  0  0  0  0  0  0
   28.2060   54.7440    1.3180 O   0  0  0  0  0  0  0  0  0  0  0  0
   27.1880   49.5520   -2.4260 N   0  0  0  0  0  0  0  0  0  0  0  0
   27.5620   48.9960   -3.1950 H   0  0  0  0  0  0  0  0  0  0  0  0
   27.1640   50.9550   -2.6050 C   0  0  0  0  0  2  0  0  0  0  0  0
   25.8610   51.6390   -2.6950 C   0  0  0  0  0  3  0  0  0  0  0  0
   24.7650   51.4130   -3.6160 C   0  0  0  0  0  2  0  0  0  0  0  0
   25.6120   52.6920   -3.7420 C   0  0  0  0  0  2  0  0  0  0  0  0
  1  4  1  0  0  0  0
  2  1  2  0  0  0  0
  2  3  1  0  0  0  0
  3  7  2  0  0  0  0
  4  5  1  0  0  0  0
  4  6  1  0  0  0  0
  6  7  1  0  0  0  0
  6 11  1  0  0  0  0
  7  8  1  0  0  0  0
  8  9  1  0  0  0  0
  8 10  1  0  0  0  0
 11 12  1  0  0  0  0
 11 10  2  0  0  0  0
 12 17  1  0  0  0  0
 13 14  1  0  0  0  0
 13 12  2  0  0  0  0
 14 15  2  0  0  0  0
 15 16  1  0  0  0  0
 17 16  2  0  0  0  0
 18 20  2  0  0  0  0
 18 14  1  0  0  0  0
 19 18  1  0  0  0  0
 21  1  1  0  0  0  0
 22 21  1  0  0  0  0
 23 21  1  0  0  0  0
 24 23  1  0  0  0  0
 25 24  1  0  0  0  0
 26 25  1  0  0  0  0
 26 24  1  0  0  0  0
M  END
>  <minimizedAffinity>
-8.39562511

>  <minimizedRMSD>
1.83280599

$$$$
