
 OpenBabel04082420003D

 18 19  0  0  1  0  0  0  0  0999 V2000
    0.0670   11.2450    9.7840 C   0  0  1  0  0  0  0  0  0  0  0  0
   -1.1070   11.3220   10.6420 N   0  0  0  0  0  4  0  0  0  0  0  0
   -1.6090   12.2090   10.6090 H   0  0  0  0  0  0  0  0  0  0  0  0
   -0.9110   11.3610   11.6420 H   0  0  0  0  0  0  0  0  0  0  0  0
    0.4310    9.7960    9.8990 C   0  0  0  0  0  2  0  0  0  0  0  0
   -0.8180    9.0660   10.3810 C   0  0  0  0  0  2  0  0  0  0  0  0
   -1.8620   10.1790   10.2130 C   0  0  2  0  0  3  0  0  0  0  0  0
   -0.3580   11.6550    8.4040 C   0  0  2  0  0  3  0  0  0  0  0  0
   -1.1810   10.5350    7.8210 C   0  0  1  0  0  3  0  0  0  0  0  0
   -2.2670   10.1930    8.7860 C   0  0  1  0  0  3  0  0  0  0  0  0
    1.0940   12.0580   10.1950 O   0  0  0  0  0  0  0  0  0  0  0  0
    1.8600   12.0080    9.6350 H   0  0  0  0  0  0  0  0  0  0  0  0
    0.6980   12.0360    7.6010 O   0  0  0  0  0  0  0  0  0  0  0  0
    0.4290   12.2960    6.7270 H   0  0  0  0  0  0  0  0  0  0  0  0
   -1.7820   10.9510    6.6280 O   0  0  0  0  0  0  0  0  0  0  0  0
   -2.3000   10.2460    6.2610 H   0  0  0  0  0  0  0  0  0  0  0  0
   -2.7080    8.8890    8.4610 O   0  0  0  0  0  0  0  0  0  0  0  0
   -2.9680    8.8980    7.5460 H   0  0  0  0  0  0  0  0  0  0  0  0
  1  5  1  0  0  0  0
  1 11  1  1  0  0  0
  1  2  1  0  0  0  0
  2  4  1  0  0  0  0
  3  2  1  0  0  0  0
  5  6  1  0  0  0  0
  7  6  1  6  0  0  0
  7  2  1  0  0  0  0
  8 13  1  6  0  0  0
  8  1  1  0  0  0  0
  9 15  1  6  0  0  0
  9  8  1  0  0  0  0
  9 10  1  0  0  0  0
 10 17  1  6  0  0  0
 10  7  1  0  0  0  0
 12 11  1  0  0  0  0
 14 13  1  0  0  0  0
 16 15  1  0  0  0  0
 18 17  1  0  0  0  0
M  END
>  <minimizedAffinity>
-5.99331856

>  <minimizedRMSD>
0.332947403

$$$$
