
 OpenBabel04082419573D

 33 35  0  0  1  0  0  0  0  0999 V2000
    2.3800   29.3510    6.8460 C   0  0  1  0  0  3  0  0  0  0  0  0
    1.7300   28.6000    7.7360 N   0  0  0  0  0  0  0  0  0  0  0  0
    2.0140   27.6310    7.8830 H   0  0  0  0  0  0  0  0  0  0  0  0
    0.6830   29.1140    8.4520 C   0  0  0  0  0  2  0  0  0  0  0  0
    0.2490   30.4040    8.3060 C   0  0  0  0  0  0  0  0  0  0  0  0
    0.9460   31.1770    7.3670 C   0  0  0  0  0  0  0  0  0  0  0  0
    1.9590   30.6130    6.6980 N   0  0  0  0  0  0  0  0  0  0  0  0
    2.4520   31.1950    6.0190 H   0  0  0  0  0  0  0  0  0  0  0  0
    0.5380   32.5140    7.1790 N   0  0  0  0  0  1  0  0  0  0  0  0
    3.4730   28.8320    6.0970 N   0  0  0  0  0  0  0  0  0  0  0  0
    4.2470   29.4530    5.8630 H   0  0  0  0  0  0  0  0  0  0  0  0
    3.5280   27.4540    5.6550 C   0  0  0  0  0  3  0  0  0  0  0  0
    4.7760   27.1910    4.8470 C   0  0  0  0  0  2  0  0  0  0  0  0
    5.8210   26.4090    5.5330 C   0  0  0  0  0  2  0  0  0  0  0  0
    5.9370   26.5910    6.9460 N   0  0  0  0  0  0  0  0  0  0  0  0
    4.6950   26.7170    7.6460 C   0  0  0  0  0  2  0  0  0  0  0  0
    3.4890   26.4570    6.7890 C   0  0  0  0  0  2  0  0  0  0  0  0
    6.7700   25.1900    7.5760 S   0  0  0  0  0  0  0  0  0  0  0  0
    7.3230   24.1950    6.2350 C   0  0  0  0  0  1  0  0  0  0  0  0
    5.7500   24.4150    8.3930 O   0  0  0  0  0  0  0  0  0  0  0  0
    7.8610   25.5860    8.5080 O   0  0  0  0  0  0  0  0  0  0  0  0
   -0.8860   30.9670    8.9950 C   0  0  1  0  0  3  0  0  0  0  0  0
   -0.8720   32.2570    9.1340 O   0  0  0  0  0  1  0  0  0  0  0  0
   -2.0270   30.2720    9.5410 C   0  0  0  0  0  0  0  0  0  0  0  0
   -3.1340   30.1590    8.6910 C   0  0  0  0  0  0  0  0  0  0  0  0
   -4.3100   29.5710    9.0820 C   0  0  0  0  0  0  0  0  0  0  0  0
   -3.0790   30.6380    7.4260 F   0  0  0  0  0  0  0  0  0  0  0  0
   -4.3550   29.0880   10.3700 C   0  0  0  0  0  3  0  0  0  0  0  0
   -5.3730   29.4650    8.2560 F   0  0  0  0  0  0  0  0  0  0  0  0
   -3.2950   29.1840   11.2210 C   0  0  0  0  0  3  0  0  0  0  0  0
   -2.1220   29.7780   10.8140 C   0  0  0  0  0  0  0  0  0  0  0  0
   -1.0440   29.8810   11.6930 O   0  0  0  0  0  0  0  0  0  0  0  0
   -0.6370   28.8170   12.5140 C   0  0  0  0  0  1  0  0  0  0  0  0
  1 10  1  1  0  0  0
  1  2  1  0  0  0  0
  2  3  1  0  0  0  0
  2  4  1  0  0  0  0
  5  4  1  0  0  0  0
  5 22  1  0  0  0  0
  6  5  2  0  0  0  0
  7  1  1  0  0  0  0
  7  6  1  0  0  0  0
  8  7  1  0  0  0  0
  9  6  1  0  0  0  0
 11 10  1  0  0  0  0
 12 10  1  0  0  0  0
 12 17  1  0  0  0  0
 13 14  1  0  0  0  0
 13 12  1  0  0  0  0
 14 15  1  0  0  0  0
 15 18  1  0  0  0  0
 15 16  1  0  0  0  0
 17 16  1  0  0  0  0
 18 20  2  0  0  0  0
 18 21  2  0  0  0  0
 19 18  1  0  0  0  0
 22 23  1  6  0  0  0
 22 24  1  0  0  0  0
 24 31  1  0  0  0  0
 25 26  1  0  0  0  0
 25 24  2  0  0  0  0
 26 28  2  0  0  0  0
 27 25  1  0  0  0  0
 28 30  1  0  0  0  0
 29 26  1  0  0  0  0
 31 30  2  0  0  0  0
 31 32  1  0  0  0  0
 32 33  1  0  0  0  0
M  END
>  <minimizedAffinity>
-9.13907337

>  <minimizedRMSD>
0.749406636

$$$$
