
 OpenBabel04082419563D

 33 34  0  0  0  0  0  0  0  0999 V2000
   21.3060   34.2630    4.3310 C   0  0  0  0  0  2  0  0  0  0  0  0
   19.9580   34.7200    3.8980 C   0  0  0  0  0  2  0  0  0  0  0  0
   18.8770   33.7200    4.0340 C   0  0  0  0  0  0  0  0  0  0  0  0
   17.9870   33.7800    5.0790 C   0  0  0  0  0  0  0  0  0  0  0  0
   16.9970   32.7970    5.1200 C   0  0  0  0  0  0  0  0  0  0  0  0
   16.8880   31.7990    4.1750 C   0  0  0  0  0  3  0  0  0  0  0  0
   17.7850   31.7360    3.1200 C   0  0  0  0  0  0  0  0  0  0  0  0
   18.7580   32.7060    3.0810 C   0  0  0  0  0  0  0  0  0  0  0  0
   19.9070   32.6440    1.7470 Cl  0  0  0  0  0  0  0  0  0  0  0  0
   18.0210   34.7750    6.1450 C   0  0  0  0  0  0  0  0  0  0  0  0
   16.9370   35.4180    6.3850 O   0  0  0  0  0  0  0  0  0  0  0  0
   19.0990   35.0970    6.9190 O   0  0  0  0  0  0  0  0  0  0  0  0
   19.0620   36.2110    7.8020 C   0  0  0  0  0  1  0  0  0  0  0  0
   16.0960   32.8680    6.1880 O   0  0  0  0  0  0  0  0  0  0  0  0
   15.4230   32.1990    6.2160 H   0  0  0  0  0  0  0  0  0  0  0  0
   17.6800   30.7320    2.1660 O   0  0  0  0  0  0  0  0  0  0  0  0
   18.2940   30.6890    1.4430 H   0  0  0  0  0  0  0  0  0  0  0  0
   22.3540   35.1980    3.8280 C   0  0  0  0  0  0  0  0  0  0  0  0
   22.1790   36.4320    3.9850 O   0  0  0  0  0  0  0  0  0  0  0  0
   23.5240   34.7080    3.1870 N   0  0  0  0  0  0  0  0  0  0  0  0
   23.4750   33.9860    2.4680 H   0  0  0  0  0  0  0  0  0  0  0  0
   24.7720   35.2700    3.5950 C   0  0  0  0  0  0  0  0  0  0  0  0
   24.8170   36.5870    4.0340 C   0  0  0  0  0  3  0  0  0  0  0  0
   25.9940   37.1810    4.4370 C   0  0  0  0  0  0  0  0  0  0  0  0
   27.1440   36.4200    4.3930 C   0  0  0  0  0  0  0  0  0  0  0  0
   27.1000   35.1070    3.9540 C   0  0  0  0  0  3  0  0  0  0  0  0
   25.9250   34.5180    3.5530 C   0  0  0  0  0  0  0  0  0  0  0  0
   26.0680   38.4830    4.8770 O   0  0  0  0  0  0  0  0  0  0  0  0
   26.8790   38.8930    5.1550 H   0  0  0  0  0  0  0  0  0  0  0  0
   28.3350   37.0030    4.7940 O   0  0  0  0  0  0  0  0  0  0  0  0
   28.7390   36.8490    6.1410 C   0  0  0  0  0  1  0  0  0  0  0  0
   25.9370   33.1980    3.1220 O   0  0  0  0  0  0  0  0  0  0  0  0
   26.7320   32.6790    3.0940 H   0  0  0  0  0  0  0  0  0  0  0  0
  2  3  1  0  0  0  0
  2  1  1  0  0  0  0
  3  4  1  0  0  0  0
  4  5  2  0  0  0  0
  4 10  1  0  0  0  0
  5 14  1  0  0  0  0
  6  5  1  0  0  0  0
  7  6  2  0  0  0  0
  8  7  1  0  0  0  0
  8  3  2  0  0  0  0
  9  8  1  0  0  0  0
 10 11  2  0  0  0  0
 10 12  1  0  0  0  0
 12 13  1  0  0  0  0
 14 15  1  0  0  0  0
 16  7  1  0  0  0  0
 17 16  1  0  0  0  0
 18 19  2  0  0  0  0
 18  1  1  0  0  0  0
 20 22  1  0  0  0  0
 20 18  1  0  0  0  0
 21 20  1  0  0  0  0
 22 23  1  0  0  0  0
 23 24  2  0  0  0  0
 24 28  1  0  0  0  0
 25 24  1  0  0  0  0
 25 30  1  0  0  0  0
 26 25  2  0  0  0  0
 27 22  2  0  0  0  0
 27 26  1  0  0  0  0
 28 29  1  0  0  0  0
 30 31  1  0  0  0  0
 32 27  1  0  0  0  0
 33 32  1  0  0  0  0
M  END
>  <minimizedAffinity>
-6.75177574

>  <minimizedRMSD>
1.14318967

$$$$
