
 OpenBabel04082420063D

 26 27  0  0  0  0  0  0  0  0999 V2000
   56.3400   77.1690   -5.5630 C   0  0  0  0  0  0  0  0  0  0  0  0
   56.2250   77.4590   -4.1260 C   0  0  0  0  0  0  0  0  0  0  0  0
   55.3660   78.4880   -3.7680 C   0  0  0  0  0  0  0  0  0  0  0  0
   55.1670   78.8710   -2.4500 C   0  0  0  0  0  3  0  0  0  0  0  0
   55.8640   78.1820   -1.4840 C   0  0  0  0  0  0  0  0  0  0  0  0
   56.7100   77.1660   -1.8430 C   0  0  0  0  0  0  0  0  0  0  0  0
   56.9180   76.7730   -3.1560 C   0  0  0  0  0  0  0  0  0  0  0  0
   57.8530   75.6600   -3.3970 C   0  0  0  0  0  2  0  0  0  0  0  0
   58.9630   75.9240   -4.3080 C   0  0  0  0  0  0  0  0  0  0  0  0
   59.6170   77.2060   -4.5930 C   0  0  0  0  0  2  0  0  0  0  0  0
   60.5940   77.0920   -5.7490 C   0  0  0  0  0  2  0  0  0  0  0  0
   59.9320   77.1910   -7.0980 C   0  0  0  0  0  2  0  0  0  0  0  0
   60.1800   75.9840   -7.9510 C   0  0  0  0  0  2  0  0  0  0  0  0
   58.9310   75.2250   -8.3150 C   0  0  0  0  0  2  0  0  0  0  0  0
   57.8050   76.0940   -8.7140 C   0  0  0  0  0  3  0  0  0  0  0  0
   56.5170   75.8090   -8.5010 C   0  0  0  0  0  3  0  0  0  0  0  0
   56.0540   74.5640   -7.8280 C   0  0  0  0  0  2  0  0  0  0  0  0
   55.9750   74.7960   -6.3260 C   0  0  0  0  0  2  0  0  0  0  0  0
   56.0900   78.1640   -6.3480 O   0  0  0  0  0  0  0  0  0  0  0  0
   57.5590   76.3380   -0.5530 Cl  0  0  0  0  0  0  0  0  0  0  0  0
   59.4110   74.9360   -4.9200 O   0  0  0  0  0  0  0  0  0  0  0  0
   56.6840   75.9530   -6.0470 O   0  0  0  0  0  0  0  0  0  0  0  0
   54.6380   79.2150   -4.7300 O   0  0  0  0  0  0  0  0  0  0  0  0
   54.0500   79.9190   -4.4850 H   0  0  0  0  0  0  0  0  0  0  0  0
   55.6990   78.5290   -0.1250 O   0  0  0  0  0  0  0  0  0  0  0  0
   56.1790   78.0530    0.5410 H   0  0  0  0  0  0  0  0  0  0  0  0
  1  2  1  0  0  0  0
  2  3  2  0  0  0  0
  2  7  1  0  0  0  0
  3  4  1  0  0  0  0
  4  5  2  0  0  0  0
  5 25  1  0  0  0  0
  6  5  1  0  0  0  0
  6 20  1  0  0  0  0
  7  6  2  0  0  0  0
  8  7  1  0  0  0  0
  9  8  1  0  0  0  0
 10  9  1  0  0  0  0
 11 10  1  0  0  0  0
 12 11  1  0  0  0  0
 13 12  1  0  0  0  0
 14 13  1  0  0  0  0
 15 16  2  0  0  0  0
 15 14  1  0  0  0  0
 16 17  1  0  0  0  0
 17 18  1  0  0  0  0
 18 22  1  0  0  0  0
 19  1  2  0  0  0  0
 21  9  2  0  0  0  0
 22  1  1  0  0  0  0
 23 24  1  0  0  0  0
 23  3  1  0  0  0  0
 25 26  1  0  0  0  0
M  END
>  <minimizedAffinity>
-7.10301495

>  <minimizedRMSD>
0.986257792

$$$$
