
 OpenBabel04082420103D

 13 13  0  0  1  0  0  0  0  0999 V2000
   -1.0580   10.7030    7.7460 C   0  0  1  0  0  3  0  0  0  0  0  0
   -0.0960   11.8230    8.1630 C   0  0  1  0  0  3  0  0  0  0  0  0
   -0.1540   12.0750    9.6450 C   0  0  0  0  0  2  0  0  0  0  0  0
   -0.4920   10.9070   10.4120 N   0  0  0  0  0  2  0  0  0  0  0  0
   -2.1700   10.7050    8.7650 C   0  0  2  0  0  3  0  0  0  0  0  0
   -1.6950   10.3280   10.0660 N   0  0  0  0  0  2  0  0  0  0  0  0
   -3.3210    9.8300    8.3490 C   0  0  0  0  0  2  0  0  0  0  0  0
   -2.9990    8.5190    8.7030 O   0  0  0  0  0  0  0  0  0  0  0  0
   -3.7260    7.9660    8.4410 H   0  0  0  0  0  0  0  0  0  0  0  0
   -1.6360   11.0100    6.5090 O   0  0  0  0  0  0  0  0  0  0  0  0
   -2.2330   10.3170    6.2530 H   0  0  0  0  0  0  0  0  0  0  0  0
    1.1830   11.6020    7.6990 O   0  0  0  0  0  0  0  0  0  0  0  0
    1.7780   12.2960    7.9560 H   0  0  0  0  0  0  0  0  0  0  0  0
  1 10  1  6  0  0  0
  1  2  1  0  0  0  0
  1  5  1  0  0  0  0
  2 12  1  1  0  0  0
  2  3  1  0  0  0  0
  3  4  1  0  0  0  0
  5  7  1  6  0  0  0
  5  6  1  0  0  0  0
  6  4  1  0  0  0  0
  7  8  1  0  0  0  0
  9  8  1  0  0  0  0
 11 10  1  0  0  0  0
 12 13  1  0  0  0  0
M  END
>  <minimizedAffinity>
-4.53608227

>  <minimizedRMSD>
0.205501288

$$$$
