
 OpenBabel04082420073D

 38 41  0  0  1  0  0  0  0  0999 V2000
   45.6900   11.7020    1.1460 C   0  0  0  0  0  0  0  0  0  0  0  0
   47.0000   11.1780    1.1130 C   0  0  0  0  0  3  0  0  0  0  0  0
   47.2680    9.8800    0.7750 C   0  0  0  0  0  0  0  0  0  0  0  0
   46.2390    9.0300    0.4490 C   0  0  0  0  0  3  0  0  0  0  0  0
   44.9600    9.5160    0.4730 C   0  0  0  0  0  3  0  0  0  0  0  0
   44.6960   10.8470    0.8210 C   0  0  0  0  0  3  0  0  0  0  0  0
   48.6280    9.4650    0.7950 N   0  0  0  0  0  0  0  0  0  0  0  0
   49.2950    9.9600    0.2040 H   0  0  0  0  0  0  0  0  0  0  0  0
   49.1060    8.3940    1.6010 C   0  0  1  0  0  3  0  0  0  0  0  0
   48.9850    7.0220    0.9690 C   0  0  0  0  0  2  0  0  0  0  0  0
   49.2610    6.0490    2.0850 C   0  0  0  0  0  2  0  0  0  0  0  0
   50.5050    6.2120    2.7230 N   0  0  0  0  0  0  0  0  0  0  0  0
   51.1180    7.4600    2.7660 C   0  0  0  0  0  2  0  0  0  0  0  0
   50.5870    8.5530    1.8980 C   0  0  0  0  0  2  0  0  0  0  0  0
   50.5720    5.2840    4.1600 S   0  0  0  0  0  0  0  0  0  0  0  0
   49.3280    5.5410    4.9460 O   0  0  0  0  0  0  0  0  0  0  0  0
   51.7930    5.7360    4.9300 O   0  0  0  0  0  0  0  0  0  0  0  0
   50.7690    3.5810    3.7760 C   0  0  0  0  0  2  0  0  0  0  0  0
   50.5280    2.7410    4.9810 C   0  0  0  0  0  0  0  0  0  0  0  0
   49.2220    2.4850    5.3480 C   0  0  0  0  0  3  0  0  0  0  0  0
   48.9360    1.7110    6.4590 C   0  0  0  0  0  3  0  0  0  0  0  0
   49.9940    1.2050    7.1870 C   0  0  0  0  0  3  0  0  0  0  0  0
   51.3040    1.4540    6.8310 C   0  0  0  0  0  3  0  0  0  0  0  0
   51.5670    2.2330    5.7130 C   0  0  0  0  0  3  0  0  0  0  0  0
   45.5010   13.1000    1.5190 C   0  0  0  0  0  0  0  0  0  0  0  0
   44.4640   14.1710    0.6170 S   0  0  0  0  0  0  0  0  0  0  0  0
   44.7330   15.6750    1.6480 C   0  0  0  0  0  0  0  0  0  0  0  0
   45.5760   15.1810    2.5490 C   0  0  0  0  0  0  0  0  0  0  0  0
   45.9950   13.8990    2.5340 C   0  0  0  0  0  0  0  0  0  0  0  0
   47.2390   13.1670    3.8640 Br  0  0  0  0  0  0  0  0  0  0  0  0
   44.1140   16.9310    1.3840 C   0  0  0  0  0  0  0  0  0  0  0  0
   43.4360   17.1500    0.3530 O   0  0  0  0  0  0  0  0  0  0  0  0
   44.2540   17.9720    2.2900 O   0  0  0  0  0  1  0  0  0  0  0  0
   46.0610   16.0620    3.5890 O   0  0  0  0  0  0  0  0  0  0  0  0
   47.2940   16.6860    3.4110 C   0  0  0  0  0  2  0  0  0  0  0  0
   47.6300   17.4710    4.6210 C   0  0  0  0  0  0  0  0  0  0  0  0
   48.8150   17.9000    4.8000 O   0  0  0  0  0  0  0  0  0  0  0  0
   46.6310   17.7220    5.5450 O   0  0  0  0  0  1  0  0  0  0  0  0
  1 25  1  0  0  0  0
  2  1  1  0  0  0  0
  3  7  1  0  0  0  0
  3  2  2  0  0  0  0
  4  5  2  0  0  0  0
  4  3  1  0  0  0  0
  5  6  1  0  0  0  0
  6  1  2  0  0  0  0
  8  7  1  0  0  0  0
  9  7  1  6  0  0  0
  9 14  1  0  0  0  0
 10  9  1  0  0  0  0
 10 11  1  0  0  0  0
 11 12  1  0  0  0  0
 12 13  1  0  0  0  0
 12 15  1  0  0  0  0
 14 13  1  0  0  0  0
 15 17  2  0  0  0  0
 15 16  2  0  0  0  0
 18 15  1  0  0  0  0
 18 19  1  0  0  0  0
 19 20  2  0  0  0  0
 19 24  1  0  0  0  0
 20 21  1  0  0  0  0
 21 22  2  0  0  0  0
 23 22  1  0  0  0  0
 24 23  2  0  0  0  0
 25 29  2  0  0  0  0
 26 25  1  0  0  0  0
 26 27  1  0  0  0  0
 27 28  2  0  0  0  0
 28 34  1  0  0  0  0
 29 28  1  0  0  0  0
 29 30  1  0  0  0  0
 31 27  1  0  0  0  0
 31 33  1  0  0  0  0
 32 31  2  0  0  0  0
 35 34  1  0  0  0  0
 35 36  1  0  0  0  0
 36 37  2  0  0  0  0
 36 38  1  0  0  0  0
M  END
>  <minimizedAffinity>
-8.22769833

>  <minimizedRMSD>
0.778246462

$$$$
