
 OpenBabel04082420083D

 32 34  0  0  0  0  0  0  0  0999 V2000
   46.2640   11.2060    1.4630 C   0  0  0  0  0  0  0  0  0  0  0  0
   47.4230   10.7050    1.9220 C   0  0  0  0  0  3  0  0  0  0  0  0
   47.7780    9.3500    1.8460 C   0  0  0  0  0  0  0  0  0  0  0  0
   46.8810    8.5040    1.2640 C   0  0  0  0  0  3  0  0  0  0  0  0
   45.6520    8.9590    0.7620 C   0  0  0  0  0  3  0  0  0  0  0  0
   45.3670   10.3120    0.8730 C   0  0  0  0  0  3  0  0  0  0  0  0
   45.8330   12.6140    1.5290 C   0  0  0  0  0  0  0  0  0  0  0  0
   44.7100   13.3200    0.3420 S   0  0  0  0  0  0  0  0  0  0  0  0
   44.6700   14.9580    1.0470 C   0  0  0  0  0  0  0  0  0  0  0  0
   45.5130   14.8460    2.1250 C   0  0  0  0  0  0  0  0  0  0  0  0
   46.0880   13.6400    2.3480 C   0  0  0  0  0  0  0  0  0  0  0  0
   47.1850   13.3160    3.9500 Br  0  0  0  0  0  0  0  0  0  0  0  0
   43.8720   16.0710    0.5170 C   0  0  0  0  0  0  0  0  0  0  0  0
   43.7760   17.2150    1.3330 O   0  0  0  0  0  1  0  0  0  0  0  0
   43.2850   16.0970   -0.5610 O   0  0  0  0  0  0  0  0  0  0  0  0
   45.7270   15.9760    2.9320 O   0  0  0  0  0  0  0  0  0  0  0  0
   46.7550   16.8460    3.0320 C   0  0  0  0  0  2  0  0  0  0  0  0
   47.2290   17.3060    4.3290 C   0  0  0  0  0  0  0  0  0  0  0  0
   46.4480   17.4890    5.4340 O   0  0  0  0  0  1  0  0  0  0  0  0
   48.4920   17.5450    4.3930 O   0  0  0  0  0  0  0  0  0  0  0  0
   49.0110    8.8890    2.3380 N   0  0  0  0  0  0  0  0  0  0  0  0
   49.6590    9.6120    2.6520 H   0  0  0  0  0  0  0  0  0  0  0  0
   49.4800    7.5420    2.4580 C   0  0  0  0  0  3  0  0  0  0  0  0
   50.9570    7.4810    2.3000 C   0  0  0  0  0  2  0  0  0  0  0  0
   51.6040    6.3310    2.9790 C   0  0  0  0  0  0  0  0  0  0  0  0
   50.7050    5.1470    2.9690 C   0  0  0  0  0  2  0  0  0  0  0  0
   52.1620    6.6310    4.3530 C   0  0  0  0  0  1  0  0  0  0  0  0
   52.8390    5.9230    2.1450 C   0  0  0  0  0  1  0  0  0  0  0  0
   49.3740    5.3400    3.6390 C   0  0  0  0  0  0  0  0  0  0  0  0
   48.9120    6.7710    3.6190 C   0  0  0  0  0  2  0  0  0  0  0  0
   49.5070    4.9070    5.0790 C   0  0  0  0  0  1  0  0  0  0  0  0
   48.3440    4.4320    2.9820 C   0  0  0  0  0  1  0  0  0  0  0  0
  1  7  1  0  0  0  0
  1  2  1  0  0  0  0
  3  2  2  0  0  0  0
  3 21  1  0  0  0  0
  4  3  1  0  0  0  0
  5  6  1  0  0  0  0
  5  4  2  0  0  0  0
  6  1  2  0  0  0  0
  7 11  2  0  0  0  0
  8  9  1  0  0  0  0
  8  7  1  0  0  0  0
  9 10  2  0  0  0  0
 10 11  1  0  0  0  0
 10 16  1  0  0  0  0
 11 12  1  0  0  0  0
 13  9  1  0  0  0  0
 13 14  1  0  0  0  0
 15 13  2  0  0  0  0
 16 17  1  0  0  0  0
 17 18  1  0  0  0  0
 18 20  2  0  0  0  0
 18 19  1  0  0  0  0
 21 23  1  0  0  0  0
 21 22  1  0  0  0  0
 23 30  1  0  0  0  0
 24 23  1  0  0  0  0
 24 25  1  0  0  0  0
 25 27  1  0  0  0  0
 26 25  1  0  0  0  0
 26 29  1  0  0  0  0
 28 25  1  0  0  0  0
 29 31  1  0  0  0  0
 30 29  1  0  0  0  0
 32 29  1  0  0  0  0
M  END
>  <minimizedAffinity>
-7.54000044

>  <minimizedRMSD>
1.23117793

$$$$
