
 OpenBabel04082420093D

 29 31  0  0  0  0  0  0  0  0999 V2000
   46.2840   11.8960    1.6440 C   0  0  0  0  0  0  0  0  0  0  0  0
   47.5750   11.4560    1.9270 C   0  0  0  0  0  3  0  0  0  0  0  0
   47.9790   10.1330    1.6830 C   0  0  0  0  0  0  0  0  0  0  0  0
   47.0840    9.2470    1.1530 C   0  0  0  0  0  3  0  0  0  0  0  0
   45.8060    9.6590    0.8650 C   0  0  0  0  0  3  0  0  0  0  0  0
   45.4280   10.9990    1.1220 C   0  0  0  0  0  3  0  0  0  0  0  0
   45.9600   13.2840    1.9320 C   0  0  0  0  0  0  0  0  0  0  0  0
   44.8450   14.2480    0.9250 S   0  0  0  0  0  0  0  0  0  0  0  0
   44.9540   15.7460    1.8570 C   0  0  0  0  0  0  0  0  0  0  0  0
   45.8150   15.4130    2.8490 C   0  0  0  0  0  0  0  0  0  0  0  0
   46.3370   14.1720    2.9060 C   0  0  0  0  0  0  0  0  0  0  0  0
   47.5890   13.6410    4.3260 Br  0  0  0  0  0  0  0  0  0  0  0  0
   44.2630   16.9920    1.5790 C   0  0  0  0  0  0  0  0  0  0  0  0
   43.6830   17.1240    0.4840 O   0  0  0  0  0  0  0  0  0  0  0  0
   44.2330   18.0280    2.4870 O   0  0  0  0  0  1  0  0  0  0  0  0
   46.1490   16.4100    3.8200 O   0  0  0  0  0  0  0  0  0  0  0  0
   47.3550   17.1330    3.6890 C   0  0  0  0  0  2  0  0  0  0  0  0
   47.9300   17.5090    4.9870 C   0  0  0  0  0  0  0  0  0  0  0  0
   47.2090   17.6320    6.1620 O   0  0  0  0  0  1  0  0  0  0  0  0
   49.1620   17.7350    5.0450 O   0  0  0  0  0  0  0  0  0  0  0  0
   49.2880    9.7420    2.0180 N   0  0  0  0  0  0  0  0  0  0  0  0
   49.8800   10.4710    2.4140 H   0  0  0  0  0  0  0  0  0  0  0  0
   49.8990    8.4560    1.8780 C   0  0  0  0  0  2  0  0  0  0  0  0
   49.8640    7.6230    3.1070 C   0  0  0  0  0  0  0  0  0  0  0  0
   48.6270    7.3550    3.7190 C   0  0  0  0  0  3  0  0  0  0  0  0
   48.5670    6.5680    4.8350 C   0  0  0  0  0  3  0  0  0  0  0  0
   49.6980    6.0240    5.3810 C   0  0  0  0  0  3  0  0  0  0  0  0
   50.9160    6.2690    4.8040 C   0  0  0  0  0  3  0  0  0  0  0  0
   50.9790    7.0700    3.6690 C   0  0  0  0  0  3  0  0  0  0  0  0
  1  2  1  0  0  0  0
  1  7  1  0  0  0  0
  3  2  2  0  0  0  0
  3 21  1  0  0  0  0
  4  3  1  0  0  0  0
  5  6  1  0  0  0  0
  5  4  2  0  0  0  0
  6  1  2  0  0  0  0
  7 11  2  0  0  0  0
  8  9  1  0  0  0  0
  8  7  1  0  0  0  0
  9 10  2  0  0  0  0
 10 11  1  0  0  0  0
 10 16  1  0  0  0  0
 11 12  1  0  0  0  0
 13  9  1  0  0  0  0
 13 15  1  0  0  0  0
 14 13  2  0  0  0  0
 17 16  1  0  0  0  0
 17 18  1  0  0  0  0
 18 20  2  0  0  0  0
 18 19  1  0  0  0  0
 21 22  1  0  0  0  0
 23 21  1  0  0  0  0
 23 24  1  0  0  0  0
 24 29  2  0  0  0  0
 24 25  1  0  0  0  0
 25 26  2  0  0  0  0
 26 27  1  0  0  0  0
 28 27  2  0  0  0  0
 29 28  1  0  0  0  0
M  END
>  <minimizedAffinity>
-7.07291698

>  <minimizedRMSD>
0.622532308

$$$$
