
 OpenBabel04082419563D

 43 47  0  0  1  0  0  0  0  0999 V2000
  -17.1050   18.1980   -5.9890 C   0  0  2  0  0  3  0  0  0  0  0  0
  -16.9360   19.4910   -5.2790 C   0  0  2  0  0  3  0  0  0  0  0  0
  -16.1610   19.0540   -4.0590 C   0  0  0  0  0  2  0  0  0  0  0  0
  -15.1700   18.1160   -4.6250 N   0  0  0  0  0  4  0  0  0  0  0  0
  -14.6430   17.5810   -3.9350 H   0  0  0  0  0  0  0  0  0  0  0  0
  -14.3540   18.5590   -5.0500 H   0  0  0  0  0  0  0  0  0  0  0  0
  -15.9700   17.3240   -5.5270 C   0  0  0  0  0  2  0  0  0  0  0  0
  -17.3750   18.1170   -7.3490 N   0  0  0  0  0  0  0  0  0  0  0  0
  -18.8920   18.2810   -8.0010 S   0  0  0  0  0  0  0  0  0  0  0  0
  -19.5340   19.5590   -7.5060 O   0  0  0  0  0  0  0  0  0  0  0  0
  -18.7510   18.3510   -9.5230 O   0  0  0  0  0  0  0  0  0  0  0  0
  -19.9960   17.0010   -7.6250 C   0  0  0  0  0  0  0  0  0  0  0  0
  -19.7770   15.6900   -8.0810 C   0  0  0  0  0  0  0  0  0  0  0  0
  -20.6680   14.6610   -7.7980 C   0  0  0  0  0  3  0  0  0  0  0  0
  -18.3690   15.3110   -9.0210 Cl  0  0  0  0  0  0  0  0  0  0  0  0
  -21.8090   14.9180   -7.0460 C   0  0  0  0  0  3  0  0  0  0  0  0
  -22.0310   16.1950   -6.5950 C   0  0  0  0  0  3  0  0  0  0  0  0
  -21.1450   17.1830   -6.8860 C   0  0  0  0  0  3  0  0  0  0  0  0
  -16.2930   18.3930   -8.2660 C   0  0  0  0  0  2  0  0  0  0  0  0
  -15.5330   19.6400   -7.9440 C   0  0  0  0  0  0  0  0  0  0  0  0
  -16.0100   20.8800   -8.2990 C   0  0  0  0  0  3  0  0  0  0  0  0
  -15.2830   22.0070   -8.0040 C   0  0  0  0  0  3  0  0  0  0  0  0
  -14.0760   21.9410   -7.3560 C   0  0  0  0  0  3  0  0  0  0  0  0
  -13.6120   20.6910   -7.0070 C   0  0  0  0  0  3  0  0  0  0  0  0
  -14.3260   19.5500   -7.2940 C   0  0  0  0  0  3  0  0  0  0  0  0
  -18.0730   20.2720   -5.1010 N   0  0  0  0  0  0  0  0  0  0  0  0
  -18.1090   21.9040   -4.9950 S   0  0  0  0  0  0  0  0  0  0  0  0
  -18.3140   22.4730   -6.4140 O   0  0  0  0  0  0  0  0  0  0  0  0
  -19.3550   22.4490   -4.2710 O   0  0  0  0  0  0  0  0  0  0  0  0
  -16.7750   22.7880   -4.3340 C   0  0  0  0  0  0  0  0  0  0  0  0
  -15.8640   23.5320   -5.0130 C   0  0  0  0  0  3  0  0  0  0  0  0
  -14.8920   24.2400   -4.3470 C   0  0  0  0  0  3  0  0  0  0  0  0
  -14.8140   24.2160   -2.9680 C   0  0  0  0  0  3  0  0  0  0  0  0
  -15.7190   23.4750   -2.2380 C   0  0  0  0  0  3  0  0  0  0  0  0
  -16.6740   22.7820   -2.9290 C   0  0  0  0  0  0  0  0  0  0  0  0
  -17.8400   21.8280   -1.9990 Cl  0  0  0  0  0  0  0  0  0  0  0  0
  -19.3390   19.6330   -5.3900 C   0  0  0  0  0  2  0  0  0  0  0  0
  -20.0360   19.1010   -4.1920 C   0  0  0  0  0  0  0  0  0  0  0  0
  -21.4030   18.9920   -4.0840 C   0  0  0  0  0  3  0  0  0  0  0  0
  -22.0230   18.5120   -2.9520 C   0  0  0  0  0  3  0  0  0  0  0  0
  -21.2960   18.1160   -1.8690 C   0  0  0  0  0  3  0  0  0  0  0  0
  -19.9080   18.2080   -1.9330 C   0  0  0  0  0  3  0  0  0  0  0  0
  -19.3090   18.6900   -3.0720 C   0  0  0  0  0  3  0  0  0  0  0  0
  1  8  1  6  0  0  0
  1  7  1  0  0  0  0
  1  2  1  0  0  0  0
  2 26  1  1  0  0  0
  2  3  1  0  0  0  0
  4  3  1  0  0  0  0
  4  5  1  0  0  0  0
  6  4  1  0  0  0  0
  7  4  1  0  0  0  0
  9 12  1  0  0  0  0
  9 10  2  0  0  0  0
  9  8  1  0  0  0  0
 11  9  2  0  0  0  0
 12 18  1  0  0  0  0
 13 14  1  0  0  0  0
 13 12  2  0  0  0  0
 14 16  2  0  0  0  0
 15 13  1  0  0  0  0
 16 17  1  0  0  0  0
 18 17  2  0  0  0  0
 19 20  1  0  0  0  0
 19  8  1  0  0  0  0
 20 25  1  0  0  0  0
 21 22  1  0  0  0  0
 21 20  2  0  0  0  0
 22 23  2  0  0  0  0
 23 24  1  0  0  0  0
 25 24  2  0  0  0  0
 26 27  1  0  0  0  0
 27 30  1  0  0  0  0
 27 29  2  0  0  0  0
 28 27  2  0  0  0  0
 30 35  1  0  0  0  0
 31 32  1  0  0  0  0
 31 30  2  0  0  0  0
 32 33  2  0  0  0  0
 33 34  1  0  0  0  0
 35 34  2  0  0  0  0
 35 36  1  0  0  0  0
 37 26  1  0  0  0  0
 37 38  1  0  0  0  0
 38 39  2  0  0  0  0
 38 43  1  0  0  0  0
 39 40  1  0  0  0  0
 40 41  2  0  0  0  0
 42 41  1  0  0  0  0
 43 42  2  0  0  0  0
M  END
>  <minimizedAffinity>
-11.3216028

>  <minimizedRMSD>
1.05986392

$$$$
