
 OpenBabel04082420083D

 29 32  0  0  1  0  0  0  0  0999 V2000
   23.6390    6.3750   16.5240 C   0  0  2  0  0  3  0  0  0  0  0  0
   24.5140    7.5790   16.3930 C   0  0  0  0  0  2  0  0  0  0  0  0
   23.9170    8.5820   15.5040 C   0  0  0  0  0  0  0  0  0  0  0  0
   22.8810    9.4120   15.8680 C   0  0  0  0  0  0  0  0  0  0  0  0
   22.4080    9.4100   17.1420 C   0  0  0  0  0  3  0  0  0  0  0  0
   22.3110   10.2870   14.9680 C   0  0  0  0  0  0  0  0  0  0  0  0
   21.3920   10.2500   17.5370 C   0  0  0  0  0  3  0  0  0  0  0  0
   20.8330   11.1140   16.6360 C   0  0  0  0  0  3  0  0  0  0  0  0
   21.2770   11.1560   15.3310 C   0  0  0  0  0  3  0  0  0  0  0  0
   22.7640   10.3620   13.6670 C   0  0  0  0  0  3  0  0  0  0  0  0
   23.7930    9.5430   13.3010 C   0  0  0  0  0  3  0  0  0  0  0  0
   24.3640    8.6670   14.1940 C   0  0  0  0  0  3  0  0  0  0  0  0
   24.1480    5.2680   17.3450 C   0  0  0  0  0  0  0  0  0  0  0  0
   24.7120    4.1690   16.7150 O   0  0  0  0  0  0  0  0  0  0  0  0
   24.1230    5.2140   18.6060 O   0  0  0  0  0  1  0  0  0  0  0  0
   23.3280    5.8330   15.2030 N   0  0  0  0  0  0  0  0  0  0  0  0
   22.0200    5.5370   14.7750 C   0  0  0  0  0  0  0  0  0  0  0  0
   20.9070    5.6600   15.3800 O   0  0  0  0  0  0  0  0  0  0  0  0
   22.1040    5.0190   13.4130 C   0  0  0  0  0  0  0  0  0  0  0  0
   21.1380    4.5830   12.5260 C   0  0  0  0  0  3  0  0  0  0  0  0
   23.4220    4.9930   13.0060 C   0  0  0  0  0  0  0  0  0  0  0  0
   21.4380    4.1290   11.2650 C   0  0  0  0  0  0  0  0  0  0  0  0
   22.7620    4.1100   10.8800 C   0  0  0  0  0  3  0  0  0  0  0  0
   23.7350    4.5430   11.7560 C   0  0  0  0  0  3  0  0  0  0  0  0
   24.1890    5.5090   14.1420 C   0  0  0  0  0  0  0  0  0  0  0  0
   25.4250    5.6310   14.1420 O   0  0  0  0  0  0  0  0  0  0  0  0
   20.4060    3.6690   10.3200 C   0  0  0  0  0  0  0  0  0  0  0  0
   20.3980    4.0880    9.1310 O   0  0  0  0  0  0  0  0  0  0  0  0
   19.4310    2.7770   10.7020 O   0  0  0  0  0  1  0  0  0  0  0  0
  1  2  1  6  0  0  0
  1 13  1  0  0  0  0
  3  4  1  0  0  0  0
  3  2  1  0  0  0  0
  4  5  1  0  0  0  0
  5  7  2  0  0  0  0
  6  9  1  0  0  0  0
  6  4  2  0  0  0  0
  8  7  1  0  0  0  0
  9  8  2  0  0  0  0
 10  6  1  0  0  0  0
 11 10  2  0  0  0  0
 11 12  1  0  0  0  0
 12  3  2  0  0  0  0
 13 15  1  0  0  0  0
 14 13  2  0  0  0  0
 16  1  1  0  0  0  0
 17 16  1  0  0  0  0
 17 18  2  0  0  0  0
 19 17  1  0  0  0  0
 20 19  2  0  0  0  0
 21 19  1  0  0  0  0
 21 25  1  0  0  0  0
 22 20  1  0  0  0  0
 23 22  2  0  0  0  0
 23 24  1  0  0  0  0
 24 21  2  0  0  0  0
 25 16  1  0  0  0  0
 26 25  2  0  0  0  0
 27 29  1  0  0  0  0
 27 22  1  0  0  0  0
 28 27  2  0  0  0  0
M  END
>  <minimizedAffinity>
-7.92793465

>  <minimizedRMSD>
0.292576402

$$$$
