
 OpenBabel04082420063D

 18 19  0  0  1  0  0  0  0  0999 V2000
   -0.3920    6.1830    9.4770 N   0  0  0  0  0  0  0  0  0  0  0  0
   -0.0500    7.0600    9.0850 H   0  0  0  0  0  0  0  0  0  0  0  0
    0.4850    5.2140    9.8120 C   0  0  2  0  0  3  0  0  0  0  0  0
   -1.7090    6.0040    9.6540 C   0  0  0  0  0  0  0  0  0  0  0  0
   -2.2210    4.8390   10.1790 C   0  0  0  0  0  3  0  0  0  0  0  0
   -1.3030    3.8560   10.5160 C   0  0  0  0  0  0  0  0  0  0  0  0
    0.0130    4.0680   10.3260 N   0  0  0  0  0  0  0  0  0  0  0  0
    0.6720    3.3330   10.5810 H   0  0  0  0  0  0  0  0  0  0  0  0
    1.8760    5.3720    9.6380 N   0  0  0  0  0  1  0  0  0  0  0  0
   -2.5090    6.9160    9.3360 O   0  0  0  0  0  0  0  0  0  0  0  0
   -1.6990    2.5510   11.0920 C   0  0  0  0  0  2  0  0  0  0  0  0
   -1.7500    1.4510   10.0790 C   0  0  0  0  0  2  0  0  0  0  0  0
   -2.9000    0.5720   10.4220 C   0  0  0  0  0  0  0  0  0  0  0  0
   -4.1650    0.9280    9.9690 C   0  0  0  0  0  3  0  0  0  0  0  0
   -5.2360    0.1180   10.2820 C   0  0  0  0  0  3  0  0  0  0  0  0
   -5.0330   -1.0200   11.0320 C   0  0  0  0  0  3  0  0  0  0  0  0
   -3.7720   -1.3560   11.4720 C   0  0  0  0  0  3  0  0  0  0  0  0
   -2.6950   -0.5690   11.1730 C   0  0  0  0  0  3  0  0  0  0  0  0
  1  4  1  0  0  0  0
  1  3  1  0  0  0  0
  2  1  1  0  0  0  0
  3  9  1  1  0  0  0
  3  7  1  0  0  0  0
  4  5  1  0  0  0  0
  5  6  2  0  0  0  0
  6 11  1  0  0  0  0
  7  6  1  0  0  0  0
  7  8  1  0  0  0  0
 10  4  2  0  0  0  0
 12 13  1  0  0  0  0
 12 11  1  0  0  0  0
 13 18  1  0  0  0  0
 14 15  1  0  0  0  0
 14 13  2  0  0  0  0
 15 16  2  0  0  0  0
 16 17  1  0  0  0  0
 18 17  2  0  0  0  0
M  END
>  <minimizedAffinity>
-5.65995359

>  <minimizedRMSD>
0.513106406

$$$$
