
 OpenBabel04082420023D

 38 42  0  0  1  0  0  0  0  0999 V2000
  -40.8510  -45.8890  -10.2740 N   0  0  0  0  0  0  0  0  0  0  0  0
  -38.2840  -47.1650  -12.5520 N   0  0  0  0  0  0  0  0  0  0  0  0
  -37.4270  -46.6810  -12.8180 H   0  0  0  0  0  0  0  0  0  0  0  0
  -39.8130  -48.7250  -12.4000 C   0  0  2  0  0  3  0  0  0  0  0  0
  -38.6110  -48.3640  -12.9200 N   0  0  0  0  0  0  0  0  0  0  0  0
  -38.0400  -48.9580  -13.5210 H   0  0  0  0  0  0  0  0  0  0  0  0
  -39.2600  -46.6510  -11.7560 C   0  0  0  0  0  0  0  0  0  0  0  0
  -40.2180  -47.6390  -11.6640 C   0  0  0  0  0  0  0  0  0  0  0  0
  -41.3050  -47.1580  -10.7950 C   0  0  0  0  0  2  0  0  0  0  0  0
  -39.6930  -45.4700  -10.9790 C   0  0  0  0  0  2  0  0  0  0  0  0
  -41.4990  -45.2080   -9.2100 C   0  0  0  0  0  0  0  0  0  0  0  0
  -41.1030  -44.0340   -8.8750 O   0  0  0  0  0  0  0  0  0  0  0  0
  -40.3920  -49.9790  -12.6490 N   0  0  0  0  0  0  0  0  0  0  0  0
  -41.5510  -50.5240  -12.0820 C   0  0  0  0  0  0  0  0  0  0  0  0
  -42.1730  -49.8310  -11.2400 O   0  0  0  0  0  0  0  0  0  0  0  0
  -39.9090  -50.5670  -13.3270 H   0  0  0  0  0  0  0  0  0  0  0  0
  -42.1030  -51.8550  -12.3970 C   0  0  0  0  0  0  0  0  0  0  0  0
  -43.2190  -52.3270  -11.7310 C   0  0  0  0  0  3  0  0  0  0  0  0
  -43.7680  -53.5560  -11.9900 C   0  0  0  0  0  3  0  0  0  0  0  0
  -43.1820  -54.3670  -12.9600 C   0  0  0  0  0  0  0  0  0  0  0  0
  -42.0770  -53.9100  -13.6260 C   0  0  0  0  0  3  0  0  0  0  0  0
  -41.5620  -52.6790  -13.3380 C   0  0  0  0  0  3  0  0  0  0  0  0
  -43.7170  -55.6340  -13.2700 N   0  0  0  0  0  0  0  0  0  0  0  0
  -45.0420  -55.8270  -13.7280 C   0  0  0  0  0  2  0  0  0  0  0  0
  -45.8320  -56.7880  -12.8510 C   0  0  0  0  0  2  0  0  0  0  0  0
  -44.9460  -57.7350  -12.1960 N   0  0  0  0  0  0  0  0  0  0  0  0
  -43.7590  -58.0170  -12.9840 C   0  0  0  0  0  2  0  0  0  0  0  0
  -44.6020  -57.3190  -10.8580 C   0  0  0  0  0  1  0  0  0  0  0  0
  -42.8570  -56.7990  -13.0950 C   0  0  0  0  0  2  0  0  0  0  0  0
  -42.6180  -45.7490   -8.4370 C   0  0  1  0  0  3  0  0  0  0  0  0
  -42.2770  -46.8910   -7.5800 C   0  0  0  0  0  0  0  0  0  0  0  0
  -42.8230  -48.1360   -7.7410 C   0  0  0  0  0  3  0  0  0  0  0  0
  -42.4900  -49.2110   -6.9090 C   0  0  0  0  0  3  0  0  0  0  0  0
  -41.5910  -49.0490   -5.8890 C   0  0  0  0  0  3  0  0  0  0  0  0
  -41.0380  -47.8000   -5.7220 C   0  0  0  0  0  3  0  0  0  0  0  0
  -41.3660  -46.7420   -6.5420 C   0  0  0  0  0  3  0  0  0  0  0  0
  -43.2210  -44.7250   -7.7070 O   0  0  0  0  0  0  0  0  0  0  0  0
  -44.4000  -45.1120   -7.0910 C   0  0  0  0  0  1  0  0  0  0  0  0
  1 11  1  0  0  0  0
  2  7  1  0  0  0  0
  3  2  1  0  0  0  0
  4 13  1  1  0  0  0
  4  8  1  0  0  0  0
  5  2  1  0  0  0  0
  5  4  1  0  0  0  0
  6  5  1  0  0  0  0
  7  8  2  0  0  0  0
  7 10  1  0  0  0  0
  8  9  1  0  0  0  0
  9  1  1  0  0  0  0
 10  1  1  0  0  0  0
 11 12  2  0  0  0  0
 13 14  1  0  0  0  0
 14 15  2  0  0  0  0
 16 13  1  0  0  0  0
 17 14  1  0  0  0  0
 17 18  1  0  0  0  0
 19 18  2  0  0  0  0
 20 19  1  0  0  0  0
 21 22  1  0  0  0  0
 21 20  2  0  0  0  0
 22 17  2  0  0  0  0
 23 29  1  0  0  0  0
 23 20  1  0  0  0  0
 24 23  1  0  0  0  0
 24 25  1  0  0  0  0
 25 26  1  0  0  0  0
 26 28  1  0  0  0  0
 27 26  1  0  0  0  0
 29 27  1  0  0  0  0
 30 11  1  1  0  0  0
 30 37  1  0  0  0  0
 30 31  1  0  0  0  0
 31 36  1  0  0  0  0
 32 31  2  0  0  0  0
 32 33  1  0  0  0  0
 33 34  2  0  0  0  0
 34 35  1  0  0  0  0
 36 35  2  0  0  0  0
 37 38  1  0  0  0  0
M  END
>  <minimizedAffinity>
-10.5477018

>  <minimizedRMSD>
0.990472972

$$$$
