
 OpenBabel04082420153D

 52 55  0  0  1  0  0  0  0  0999 V2000
   -3.8470   -3.5380   30.8870 C   0  0  0  0  0  0  0  0  0  0  0  0
   -4.8760   -3.5860   30.1220 O   0  0  0  0  0  0  0  0  0  0  0  0
   -3.9900   -3.6040   32.2930 N   0  0  0  0  0  0  0  0  0  0  0  0
   -3.1980   -3.3390   32.8780 H   0  0  0  0  0  0  0  0  0  0  0  0
   -2.5500   -3.4130   30.2470 C   0  0  0  0  0  0  0  0  0  0  0  0
   -2.2850   -2.5050   29.2490 C   0  0  0  0  0  3  0  0  0  0  0  0
   -1.0470   -2.3880   28.6520 C   0  0  0  0  0  0  0  0  0  0  0  0
   -0.0300   -3.2320   29.0900 C   0  0  0  0  0  3  0  0  0  0  0  0
   -0.2380   -4.1580   30.0850 C   0  0  0  0  0  0  0  0  0  0  0  0
   -1.5070   -4.2250   30.6430 C   0  0  0  0  0  3  0  0  0  0  0  0
   -0.7910   -1.4420   27.6160 N   0  0  0  0  0  0  0  0  0  0  0  0
   -1.8300   -0.6610   27.0020 C   0  0  0  0  0  1  0  0  0  0  0  0
    0.8340   -1.2480   27.1010 S   0  0  0  0  0  0  0  0  0  0  0  0
    1.1330   -2.3630   26.1340 O   0  0  0  0  0  0  0  0  0  0  0  0
    1.0190    0.0730   26.4180 O   0  0  0  0  0  0  0  0  0  0  0  0
    1.8990   -1.3450   28.5190 C   0  0  0  0  0  1  0  0  0  0  0  0
    0.8380   -5.0380   30.5460 C   0  0  0  0  0  0  0  0  0  0  0  0
    0.6430   -6.2810   31.1570 N   0  0  0  0  0  0  0  0  0  0  0  0
    0.1500   -7.0040   30.6340 H   0  0  0  0  0  0  0  0  0  0  0  0
    2.0350   -4.6470   30.3780 O   0  0  0  0  0  0  0  0  0  0  0  0
    1.1050   -6.5970   32.4990 C   0  0  2  0  0  3  0  0  0  0  0  0
    0.0360   -6.2900   33.5300 C   0  0  0  0  0  1  0  0  0  0  0  0
    2.3300   -5.8500   32.8290 C   0  0  0  0  0  0  0  0  0  0  0  0
    2.2990   -4.8400   33.7540 C   0  0  0  0  0  3  0  0  0  0  0  0
    3.4450   -4.1340   34.0680 C   0  0  0  0  0  3  0  0  0  0  0  0
    4.6180   -4.4520   33.4470 C   0  0  0  0  0  3  0  0  0  0  0  0
    4.6830   -5.4620   32.5130 C   0  0  0  0  0  3  0  0  0  0  0  0
    3.5200   -6.1560   32.2140 C   0  0  0  0  0  3  0  0  0  0  0  0
   -5.2130   -4.0340   32.9370 C   0  0  1  0  0  3  0  0  0  0  0  0
   -4.9710   -5.1930   33.8510 C   0  0  0  0  0  2  0  0  0  0  0  0
   -4.1620   -6.2810   33.3290 C   0  0  0  0  0  0  0  0  0  0  0  0
   -3.3110   -7.0740   34.0570 C   0  0  0  0  0  3  0  0  0  0  0  0
   -2.5990   -8.0710   33.4420 C   0  0  0  0  0  3  0  0  0  0  0  0
   -2.7180   -8.3070   32.0670 C   0  0  0  0  0  3  0  0  0  0  0  0
   -3.5700   -7.5160   31.3360 C   0  0  0  0  0  3  0  0  0  0  0  0
   -4.2760   -6.5280   31.9460 C   0  0  0  0  0  3  0  0  0  0  0  0
   -5.9480   -2.9010   33.5880 C   0  0  2  0  0  3  0  0  0  0  0  0
   -6.7920   -3.4570   34.5560 O   0  0  0  0  0  0  0  0  0  0  0  0
   -7.2580   -2.7390   34.9680 H   0  0  0  0  0  0  0  0  0  0  0  0
   -6.7110   -2.0230   32.6710 C   0  0  0  0  0  2  0  0  0  0  0  0
   -6.3170   -0.6370   32.7060 N   0  0  0  0  0  4  0  0  0  0  0  0
   -5.5560   -0.4920   33.3710 H   0  0  0  0  0  0  0  0  0  0  0  0
   -5.8380   -0.3730   31.8450 H   0  0  0  0  0  0  0  0  0  0  0  0
   -7.4160    0.2560   32.9790 C   0  0  0  0  0  2  0  0  0  0  0  0
   -8.5810   -0.2070   32.1790 C   0  0  0  0  0  0  0  0  0  0  0  0
   -9.3620   -1.2630   32.6260 C   0  0  0  0  0  3  0  0  0  0  0  0
  -10.4520   -1.7250   31.9210 C   0  0  0  0  0  0  0  0  0  0  0  0
  -10.7950   -1.1360   30.7370 C   0  0  0  0  0  3  0  0  0  0  0  0
  -10.0300   -0.0880   30.2820 C   0  0  0  0  0  3  0  0  0  0  0  0
   -8.9560    0.3640   30.9810 C   0  0  0  0  0  3  0  0  0  0  0  0
  -11.1850   -2.7710   32.4090 O   0  0  0  0  0  0  0  0  0  0  0  0
  -10.9090   -3.4100   33.6190 C   0  0  0  0  0  1  0  0  0  0  0  0
  1  3  1  0  0  0  0
  2  1  2  0  0  0  0
  3  4  1  0  0  0  0
  3 29  1  0  0  0  0
  5 10  1  0  0  0  0
  5  1  1  0  0  0  0
  6  5  2  0  0  0  0
  7  8  2  0  0  0  0
  7  6  1  0  0  0  0
  8  9  1  0  0  0  0
  9 17  1  0  0  0  0
  9 10  2  0  0  0  0
 11  7  1  0  0  0  0
 12 11  1  0  0  0  0
 13 11  1  0  0  0  0
 13 16  1  0  0  0  0
 14 13  2  0  0  0  0
 15 13  2  0  0  0  0
 17 18  1  0  0  0  0
 18 21  1  0  0  0  0
 19 18  1  0  0  0  0
 20 17  2  0  0  0  0
 21 23  1  0  0  0  0
 21 22  1  1  0  0  0
 23 24  1  0  0  0  0
 24 25  2  0  0  0  0
 26 25  1  0  0  0  0
 27 26  2  0  0  0  0
 28 27  1  0  0  0  0
 28 23  2  0  0  0  0
 29 37  1  0  0  0  0
 29 30  1  1  0  0  0
 31 30  1  0  0  0  0
 31 32  1  0  0  0  0
 33 32  2  0  0  0  0
 34 33  1  0  0  0  0
 35 36  1  0  0  0  0
 35 34  2  0  0  0  0
 36 31  2  0  0  0  0
 37 40  1  6  0  0  0
 37 38  1  0  0  0  0
 38 39  1  0  0  0  0
 40 41  1  0  0  0  0
 41 44  1  0  0  0  0
 41 42  1  0  0  0  0
 43 41  1  0  0  0  0
 45 46  1  0  0  0  0
 45 44  1  0  0  0  0
 47 51  1  0  0  0  0
 47 46  2  0  0  0  0
 48 47  1  0  0  0  0
 49 48  2  0  0  0  0
 49 50  1  0  0  0  0
 50 45  2  0  0  0  0
 51 52  1  0  0  0  0
M  END
>  <minimizedAffinity>
-12.6938848

>  <minimizedRMSD>
0.785124302

$$$$
