
 OpenBabel04082420043D

 25 25  0  0  1  0  0  0  0  0999 V2000
   -9.4040  -10.6840   10.3510 C   0  0  1  0  0  3  0  0  0  0  0  0
   -8.6100  -10.0250   11.4610 C   0  0  1  0  0  3  0  0  0  0  0  0
   -7.9520   -8.8010   10.8430 C   0  0  2  0  0  3  0  0  0  0  0  0
   -7.0430   -9.2300    9.8810 O   0  0  0  0  0  0  0  0  0  0  0  0
   -7.7690   -9.7690    8.8050 C   0  0  2  0  0  3  0  0  0  0  0  0
   -8.3880  -11.0510    9.2930 C   0  0  2  0  0  3  0  0  0  0  0  0
   -8.8930  -11.8910    8.2690 N   0  0  0  0  0  0  0  0  0  0  0  0
   -9.8260  -11.4670    7.2670 C   0  0  0  0  0  0  0  0  0  0  0  0
  -10.0470  -10.2340    7.2070 O   0  0  0  0  0  0  0  0  0  0  0  0
  -10.4590  -12.4050    6.3940 N   0  0  0  0  0  0  0  0  0  0  0  0
  -11.3630  -11.9110    5.3750 C   0  0  0  0  0  1  0  0  0  0  0  0
   -8.5730  -12.8590    8.2430 H   0  0  0  0  0  0  0  0  0  0  0  0
  -10.1830  -13.7500    6.5550 N   0  0  0  0  0  0  0  0  0  0  0  0
   -9.6870  -14.0950    7.3780 H   0  0  0  0  0  0  0  0  0  0  0  0
  -10.5670  -14.5290    5.6460 O   0  0  0  0  0  0  0  0  0  0  0  0
  -10.3770  -15.4530    5.7560 H   0  0  0  0  0  0  0  0  0  0  0  0
  -10.1140  -11.7870   10.8040 O   0  0  0  0  0  0  0  0  0  0  0  0
  -10.6120  -12.1990   10.1070 H   0  0  0  0  0  0  0  0  0  0  0  0
   -6.9500   -9.9470    7.7080 O   0  0  0  0  0  0  0  0  0  0  0  0
   -7.4400  -10.3110    6.9810 H   0  0  0  0  0  0  0  0  0  0  0  0
   -9.4020   -9.6900   12.5460 O   0  0  0  0  0  0  0  0  0  0  0  0
   -8.9050   -9.2780   13.2420 H   0  0  0  0  0  0  0  0  0  0  0  0
   -7.3030   -7.9400   11.8880 C   0  0  0  0  0  2  0  0  0  0  0  0
   -6.1150   -8.5220   12.2720 O   0  0  0  0  0  0  0  0  0  0  0  0
   -5.7050   -7.9780   12.9330 H   0  0  0  0  0  0  0  0  0  0  0  0
  1 17  1  1  0  0  0
  1  2  1  0  0  0  0
  2 21  1  1  0  0  0
  3  2  1  0  0  0  0
  3 23  1  1  0  0  0
  4  3  1  0  0  0  0
  5 19  1  6  0  0  0
  5  6  1  0  0  0  0
  5  4  1  0  0  0  0
  6  7  1  6  0  0  0
  6  1  1  0  0  0  0
  8  7  1  0  0  0  0
  9  8  2  0  0  0  0
 10 13  1  0  0  0  0
 10  8  1  0  0  0  0
 11 10  1  0  0  0  0
 12  7  1  0  0  0  0
 13 14  1  0  0  0  0
 15 16  1  0  0  0  0
 15 13  1  0  0  0  0
 18 17  1  0  0  0  0
 20 19  1  0  0  0  0
 21 22  1  0  0  0  0
 23 24  1  0  0  0  0
 24 25  1  0  0  0  0
M  END
>  <minimizedAffinity>
-5.97546196

>  <minimizedRMSD>
0.512411356

$$$$
