
 OpenBabel04082420183D

 22 22  0  0  1  0  0  0  0  0999 V2000
    6.9720  -11.4440    4.7470 C   0  0  1  0  0  3  0  0  0  0  0  0
    5.5100  -11.7330    4.9440 C   0  0  1  0  0  3  0  0  0  0  0  0
    7.0720  -10.5000    3.5440 C   0  0  2  0  0  3  0  0  0  0  0  0
    7.0950  -11.3540    2.3180 C   0  0  1  0  0  3  0  0  0  0  0  0
    5.7560  -11.6060    1.7120 C   0  0  2  0  0  3  0  0  0  0  0  0
    4.7130  -11.8730    2.6430 N   0  0  0  0  0  0  0  0  0  0  0  0
    3.7600  -11.5360    2.5050 H   0  0  0  0  0  0  0  0  0  0  0  0
    5.0910  -12.6440    3.7840 C   0  0  0  0  0  2  0  0  0  0  0  0
    7.5990  -10.8700    5.9110 N   0  0  0  0  0  0  0  0  0  0  0  0
    6.8980  -10.0090    6.7950 C   0  0  0  0  0  0  0  0  0  0  0  0
    5.7080   -9.7100    6.4880 O   0  0  0  0  0  0  0  0  0  0  0  0
    7.4560   -9.4480    8.0330 C   0  0  0  0  0  1  0  0  0  0  0  0
    8.5760  -11.0870    6.1040 H   0  0  0  0  0  0  0  0  0  0  0  0
    5.2150  -12.2950    6.1640 O   0  0  0  0  0  0  0  0  0  0  0  0
    4.2910  -12.4790    6.2890 H   0  0  0  0  0  0  0  0  0  0  0  0
    8.3210   -9.8680    3.6490 O   0  0  0  0  0  0  0  0  0  0  0  0
    8.3820   -9.2840    2.9030 H   0  0  0  0  0  0  0  0  0  0  0  0
    7.8870  -10.7150    1.3630 O   0  0  0  0  0  0  0  0  0  0  0  0
    7.9010  -11.2580    0.5830 H   0  0  0  0  0  0  0  0  0  0  0  0
    5.9240  -12.7190    0.6750 C   0  0  0  0  0  2  0  0  0  0  0  0
    4.7580  -13.4300    0.4810 O   0  0  0  0  0  0  0  0  0  0  0  0
    4.8630  -14.1210   -0.1620 H   0  0  0  0  0  0  0  0  0  0  0  0
  1  2  1  0  0  0  0
  1  9  1  1  0  0  0
  2 14  1  1  0  0  0
  3 16  1  1  0  0  0
  3  1  1  0  0  0  0
  4 18  1  6  0  0  0
  4  3  1  0  0  0  0
  5 20  1  6  0  0  0
  5  4  1  0  0  0  0
  5  6  1  0  0  0  0
  6  8  1  0  0  0  0
  7  6  1  0  0  0  0
  8  2  1  0  0  0  0
  9 13  1  0  0  0  0
  9 10  1  0  0  0  0
 10 12  1  0  0  0  0
 11 10  2  0  0  0  0
 14 15  1  0  0  0  0
 17 16  1  0  0  0  0
 19 18  1  0  0  0  0
 21 20  1  0  0  0  0
 22 21  1  0  0  0  0
M  END
>  <minimizedAffinity>
-5.70921946

>  <minimizedRMSD>
1.20415461

$$$$
