
 OpenBabel04082419553D

 33 34  0  0  1  0  0  0  0  0999 V2000
   -7.8520  -11.8170    8.4400 C   0  0  2  0  0  3  0  0  0  0  0  0
   -8.8690  -11.2750    9.4080 C   0  0  2  0  0  3  0  0  0  0  0  0
   -8.1200  -10.8930   10.6760 C   0  0  1  0  0  3  0  0  0  0  0  0
   -7.0600   -9.8570   10.4160 C   0  0  2  0  0  3  0  0  0  0  0  0
   -6.7180   -9.7450    9.0570 O   0  0  0  0  0  0  0  0  0  0  0  0
   -6.9530  -10.6890    8.0940 C   0  0  1  0  0  3  0  0  0  0  0  0
   -6.4450  -10.6600    6.9120 N   0  0  0  0  0  0  0  0  0  0  0  0
   -6.7310   -9.9110    6.2800 H   0  0  0  0  0  0  0  0  0  0  0  0
   -8.4690  -12.3980    7.2670 N   0  0  0  0  0  0  0  0  0  0  0  0
   -9.4400  -11.6780    6.5620 C   0  0  0  0  0  0  0  0  0  0  0  0
   -9.6870  -10.4920    6.9140 O   0  0  0  0  0  0  0  0  0  0  0  0
   -8.1970  -13.3290    6.9540 H   0  0  0  0  0  0  0  0  0  0  0  0
  -10.2010  -12.2450    5.4100 C   0  0  0  0  0  2  0  0  0  0  0  0
  -11.0730  -11.2110    4.7530 C   0  0  0  0  0  2  0  0  0  0  0  0
  -11.7410  -11.8690    3.5650 C   0  0  0  0  0  1  0  0  0  0  0  0
   -5.5370  -11.5860    6.4590 O   0  0  0  0  0  0  0  0  0  0  0  0
   -4.3380  -11.7830    7.1310 C   0  0  0  0  0  0  0  0  0  0  0  0
   -4.0250  -12.9770    7.3860 O   0  0  0  0  0  0  0  0  0  0  0  0
   -3.5150  -10.6910    7.5040 N   0  0  0  0  0  0  0  0  0  0  0  0
   -3.8960   -9.9180    8.0490 H   0  0  0  0  0  0  0  0  0  0  0  0
   -2.1640  -10.6920    7.1140 C   0  0  0  0  0  0  0  0  0  0  0  0
   -1.5420  -11.8640    6.7880 C   0  0  0  0  0  3  0  0  0  0  0  0
   -0.2220  -11.8460    6.4080 C   0  0  0  0  0  3  0  0  0  0  0  0
    0.4570  -10.6400    6.3620 C   0  0  0  0  0  3  0  0  0  0  0  0
   -0.1520   -9.4480    6.6860 C   0  0  0  0  0  3  0  0  0  0  0  0
   -1.4790   -9.5080    7.0630 C   0  0  0  0  0  3  0  0  0  0  0  0
   -9.8140  -12.2350    9.7650 O   0  0  0  0  0  0  0  0  0  0  0  0
  -10.4550  -11.8920   10.3760 H   0  0  0  0  0  0  0  0  0  0  0  0
   -5.8200  -10.0610   11.2450 C   0  0  0  0  0  2  0  0  0  0  0  0
   -5.1670   -8.8110   11.3010 O   0  0  0  0  0  0  0  0  0  0  0  0
   -4.3840   -8.9390   11.8240 H   0  0  0  0  0  0  0  0  0  0  0  0
   -8.9810  -10.4660   11.6700 O   0  0  0  0  0  0  0  0  0  0  0  0
   -8.5130  -10.2290   12.4620 H   0  0  0  0  0  0  0  0  0  0  0  0
  1  9  1  6  0  0  0
  1  2  1  0  0  0  0
  2 27  1  1  0  0  0
  2  3  1  0  0  0  0
  3 32  1  1  0  0  0
  4  3  1  0  0  0  0
  4 29  1  1  0  0  0
  5  4  1  0  0  0  0
  6  7  1  1  0  0  0
  6  1  1  0  0  0  0
  6  5  1  0  0  0  0
  8  7  1  0  0  0  0
 10 11  2  0  0  0  0
 10  9  1  0  0  0  0
 12  9  1  0  0  0  0
 13 10  1  0  0  0  0
 14 13  1  0  0  0  0
 15 14  1  0  0  0  0
 16  7  1  0  0  0  0
 16 17  1  0  0  0  0
 17 18  2  0  0  0  0
 17 19  1  0  0  0  0
 19 20  1  0  0  0  0
 21 19  1  0  0  0  0
 22 21  2  0  0  0  0
 23 22  1  0  0  0  0
 24 23  2  0  0  0  0
 24 25  1  0  0  0  0
 25 26  2  0  0  0  0
 26 21  1  0  0  0  0
 27 28  1  0  0  0  0
 29 30  1  0  0  0  0
 30 31  1  0  0  0  0
 32 33  1  0  0  0  0
M  END
>  <minimizedAffinity>
-6.3515749

>  <minimizedRMSD>
0.82231158

$$$$
