
 OpenBabel04082420003D

 13 13  0  0  0  0  0  0  0  0999 V2000
   16.6130    6.1930   14.5950 C   0  0  0  0  0  3  0  0  0  0  0  0
   17.4820    5.1330   14.5720 C   0  0  0  0  0  3  0  0  0  0  0  0
   17.1270    3.9350   15.2020 C   0  0  0  0  0  3  0  0  0  0  0  0
   15.9250    3.7790   15.8480 C   0  0  0  0  0  0  0  0  0  0  0  0
   15.0570    4.8560   15.8640 C   0  0  0  0  0  0  0  0  0  0  0  0
   15.4180    6.0330   15.2400 C   0  0  0  0  0  3  0  0  0  0  0  0
   13.8820    4.7110   16.4950 F   0  0  0  0  0  0  0  0  0  0  0  0
   15.5590    2.2610   16.6050 S   0  0  0  0  0  0  0  0  0  0  0  0
   15.9290    2.3310   18.0550 O   0  0  0  0  0  0  0  0  0  0  0  0
   14.0740    1.9590   16.4780 O   0  0  0  0  0  0  0  0  0  0  0  0
   16.4910    0.9760   15.9080 N   0  0  0  0  0  0  0  0  0  0  0  0
   17.1630    1.1110   15.1530 H   0  0  0  0  0  0  0  0  0  0  0  0
   16.2750    0.0850   16.3540 H   0  0  0  0  0  0  0  0  0  0  0  0
  1  6  1  0  0  0  0
  2  1  2  0  0  0  0
  2  3  1  0  0  0  0
  3  4  2  0  0  0  0
  4  5  1  0  0  0  0
  4  8  1  0  0  0  0
  5  7  1  0  0  0  0
  6  5  2  0  0  0  0
  8  9  2  0  0  0  0
 10  8  2  0  0  0  0
 11 13  1  0  0  0  0
 11  8  1  0  0  0  0
 12 11  1  0  0  0  0
M  END
>  <minimizedAffinity>
-8.29338264

>  <minimizedRMSD>
0.34541291

$$$$
