
 OpenBabel04082420033D

 25 27  0  0  1  0  0  0  0  0999 V2000
   30.4910   -6.4000   62.3720 C   0  0  0  0  0  3  0  0  0  0  0  0
   29.7210   -5.3650   62.3350 C   0  0  0  0  0  0  0  0  0  0  0  0
   29.1090   -4.6740   63.5280 C   0  0  0  0  0  2  0  0  0  0  0  0
   29.7000   -3.2730   63.4870 C   0  0  0  0  0  2  0  0  0  0  0  0
   29.5760   -2.6320   62.1780 C   0  0  0  0  0  2  0  0  0  0  0  0
   29.3290   -3.4760   61.0510 N   0  0  0  0  0  0  0  0  0  0  0  0
   29.0930   -3.0130   60.1730 H   0  0  0  0  0  0  0  0  0  0  0  0
   29.3730   -4.7670   61.0340 C   0  0  1  0  0  3  0  0  0  0  0  0
   31.0720   -6.9370   63.5830 C   0  0  0  0  0  0  0  0  0  0  0  0
   30.5290   -8.0370   64.2220 C   0  0  0  0  0  0  0  0  0  0  0  0
   31.0500   -8.5260   65.4000 C   0  0  0  0  0  3  0  0  0  0  0  0
   32.1500   -7.8980   65.9640 C   0  0  0  0  0  0  0  0  0  0  0  0
   32.6870   -6.8060   65.3280 C   0  0  0  0  0  3  0  0  0  0  0  0
   32.1590   -6.3240   64.1500 C   0  0  0  0  0  3  0  0  0  0  0  0
   29.4310   -8.6580   63.6540 O   0  0  0  0  0  0  0  0  0  0  0  0
   28.8140   -9.7950   64.2230 C   0  0  0  0  0  1  0  0  0  0  0  0
   32.6940   -8.3880   67.1670 O   0  0  0  0  0  0  0  0  0  0  0  0
   33.4480   -7.9580   67.5530 H   0  0  0  0  0  0  0  0  0  0  0  0
   29.1250   -5.5310   59.8220 C   0  0  0  0  0  0  0  0  0  0  0  0
   27.9320   -6.2780   59.7400 C   0  0  0  0  0  2  0  0  0  0  0  0
   27.6980   -7.0260   58.6770 N   0  0  0  0  0  0  0  0  0  0  0  0
   28.5260   -7.1420   57.6270 C   0  0  0  0  0  3  0  0  0  0  0  0
   26.8250   -7.5520   58.6520 H   0  0  0  0  0  0  0  0  0  0  0  0
   29.7070   -6.4390   57.6460 C   0  0  0  0  0  3  0  0  0  0  0  0
   29.9820   -5.6380   58.7620 C   0  0  0  0  0  3  0  0  0  0  0  0
  1  9  1  0  0  0  0
  2  1  2  0  0  0  0
  2  3  1  0  0  0  0
  4  3  1  0  0  0  0
  5  4  1  0  0  0  0
  6  5  1  0  0  0  0
  7  6  1  0  0  0  0
  8 19  1  6  0  0  0
  8  6  1  0  0  0  0
  8  2  1  0  0  0  0
  9 14  2  0  0  0  0
  9 10  1  0  0  0  0
 10 11  2  0  0  0  0
 11 12  1  0  0  0  0
 12 17  1  0  0  0  0
 13 12  2  0  0  0  0
 14 13  1  0  0  0  0
 15 10  1  0  0  0  0
 15 16  1  0  0  0  0
 17 18  1  0  0  0  0
 20 19  1  0  0  0  0
 21 20  1  0  0  0  0
 22 24  2  0  0  0  0
 22 21  1  0  0  0  0
 23 21  1  0  0  0  0
 24 25  1  0  0  0  0
 25 19  2  0  0  0  0
M  END
>  <minimizedAffinity>
-7.0486083

>  <minimizedRMSD>
1.13375795

$$$$
