
 OpenBabel04082419593D

 22 25  0  0  1  0  0  0  0  0999 V2000
  -97.6580  -60.0420  -56.9780 O   0  0  0  0  0  0  0  0  0  0  0  0
  -98.3360  -60.0380  -58.0330 C   0  0  0  0  0  0  0  0  0  0  0  0
  -99.6890  -60.5830  -58.0410 C   0  0  0  0  0  0  0  0  0  0  0  0
 -100.4340  -60.9850  -59.1470 C   0  0  0  0  0  3  0  0  0  0  0  0
 -101.6270  -61.4280  -58.7410 N   0  0  0  0  0  0  0  0  0  0  0  0
 -101.7190  -61.3410  -57.3990 C   0  0  0  0  0  0  0  0  0  0  0  0
 -102.3600  -61.7800  -59.3570 H   0  0  0  0  0  0  0  0  0  0  0  0
 -100.5090  -60.8130  -56.9570 C   0  0  0  0  0  0  0  0  0  0  0  0
 -102.7390  -61.6730  -56.5440 C   0  0  0  0  0  3  0  0  0  0  0  0
 -100.3580  -60.6270  -55.6010 C   0  0  0  0  0  3  0  0  0  0  0  0
 -101.3850  -60.9620  -54.7400 C   0  0  0  0  0  3  0  0  0  0  0  0
 -102.5770  -61.4820  -55.1740 C   0  0  0  0  0  3  0  0  0  0  0  0
  -97.8190  -59.5240  -59.1870 O   0  0  0  0  0  0  0  0  0  0  0  0
  -96.4180  -59.3830  -59.4290 C   0  0  1  0  0  3  0  0  0  0  0  0
  -95.7520  -58.7600  -58.2240 C   0  0  0  0  0  2  0  0  0  0  0  0
  -94.2980  -59.2020  -58.1370 C   0  0  1  0  0  3  0  0  0  0  0  0
  -94.1440  -60.4880  -57.3670 C   0  0  0  0  0  2  0  0  0  0  0  0
  -93.8750  -59.5050  -59.4950 N   0  0  0  0  0  0  0  0  0  0  0  0
  -93.9810  -61.5500  -58.4120 C   0  0  0  0  0  2  0  0  0  0  0  0
  -94.3900  -60.8370  -59.6830 C   0  0  1  0  0  3  0  0  0  0  0  0
  -95.8960  -60.7710  -59.7080 C   0  0  0  0  0  2  0  0  0  0  0  0
  -92.4260  -59.4690  -59.5210 C   0  0  0  0  0  1  0  0  0  0  0  0
  2  1  2  0  0  0  0
  3  2  1  0  0  0  0
  3  8  1  0  0  0  0
  4  5  1  0  0  0  0
  4  3  2  0  0  0  0
  5  6  1  0  0  0  0
  6  8  2  0  0  0  0
  6  9  1  0  0  0  0
  7  5  1  0  0  0  0
  8 10  1  0  0  0  0
  9 12  2  0  0  0  0
 10 11  2  0  0  0  0
 12 11  1  0  0  0  0
 13  2  1  0  0  0  0
 14 13  1  1  0  0  0
 14 15  1  0  0  0  0
 16 15  1  6  0  0  0
 16 17  1  0  0  0  0
 18 16  1  0  0  0  0
 19 17  1  0  0  0  0
 20 21  1  1  0  0  0
 20 18  1  0  0  0  0
 20 19  1  0  0  0  0
 21 14  1  0  0  0  0
 22 18  1  0  0  0  0
M  END
>  <minimizedAffinity>
-7.44474983

>  <minimizedRMSD>
0.895957351

$$$$
