
 OpenBabel04082420103D

 38 42  0  0  1  0  0  0  0  0999 V2000
    0.2860   -8.3760   -3.4000 C   0  0  0  0  0  2  0  0  0  0  0  0
    1.4840  -10.4970   -3.9880 C   0  0  0  0  0  0  0  0  0  0  0  0
    2.7680  -10.3790   -3.3180 C   0  0  0  0  0  0  0  0  0  0  0  0
    4.7670  -11.6370   -2.7830 C   0  0  0  0  0  0  0  0  0  0  0  0
    5.3020  -10.5590   -2.1040 C   0  0  0  0  0  3  0  0  0  0  0  0
    3.1620   -5.7960   -1.6680 C   0  0  2  0  0  3  0  0  0  0  0  0
    1.8790   -5.4660   -2.0040 N   0  0  0  0  0  0  0  0  0  0  0  0
    1.5660   -4.5110   -1.8300 H   0  0  0  0  0  0  0  0  0  0  0  0
    1.0160   -6.3210   -2.5470 C   0  0  0  0  0  3  0  0  0  0  0  0
    1.4000   -7.6260   -2.8000 C   0  0  0  0  0  0  0  0  0  0  0  0
    0.5610   -9.6300   -3.9520 N   0  0  0  0  0  0  0  0  0  0  0  0
   -0.2360   -9.9490   -4.5020 H   0  0  0  0  0  0  0  0  0  0  0  0
    3.5230  -11.5400   -3.3750 C   0  0  0  0  0  3  0  0  0  0  0  0
    5.6590  -13.1590   -2.9090 Cl  0  0  0  0  0  0  0  0  0  0  0  0
    4.5420   -9.3920   -2.0480 C   0  0  0  0  0  3  0  0  0  0  0  0
    3.3010   -9.2760   -2.6330 C   0  0  0  0  0  0  0  0  0  0  0  0
    2.6890   -7.9680   -2.4640 C   0  0  0  0  0  0  0  0  0  0  0  0
    3.5380   -7.0600   -1.9120 N   0  0  0  0  0  0  0  0  0  0  0  0
    4.4880   -7.3480   -1.6770 H   0  0  0  0  0  0  0  0  0  0  0  0
    4.0230   -4.8720   -1.0690 N   0  0  0  0  0  0  0  0  0  0  0  0
    3.6060   -3.9770   -0.8150 H   0  0  0  0  0  0  0  0  0  0  0  0
    5.3900   -5.0190   -0.7730 C   0  0  0  0  0  0  0  0  0  0  0  0
    6.0520   -4.2910    0.1700 C   0  0  0  0  0  3  0  0  0  0  0  0
    7.4240   -4.4400    0.4110 C   0  0  0  0  0  3  0  0  0  0  0  0
    8.1280   -5.3460   -0.3200 C   0  0  0  0  0  0  0  0  0  0  0  0
    7.4860   -6.1100   -1.2920 C   0  0  0  0  0  3  0  0  0  0  0  0
    6.1360   -5.9460   -1.5110 C   0  0  0  0  0  3  0  0  0  0  0  0
    9.5590   -5.5370   -0.1120 C   0  0  0  0  0  0  0  0  0  0  0  0
   10.1690   -4.8840    0.7830 O   0  0  0  0  0  1  0  0  0  0  0  0
   10.2840   -6.4280   -0.8770 O   0  0  0  0  0  0  0  0  0  0  0  0
    1.3290  -11.7470   -4.7250 C   0  0  0  0  0  0  0  0  0  0  0  0
    1.3090  -12.9720   -4.1490 C   0  0  0  0  0  0  0  0  0  0  0  0
    1.4410  -13.0740   -2.8050 F   0  0  0  0  0  0  0  0  0  0  0  0
    1.1570  -14.1030   -4.9180 C   0  0  0  0  0  3  0  0  0  0  0  0
    1.0210  -14.0220   -6.2900 C   0  0  0  0  0  3  0  0  0  0  0  0
    1.0440  -12.7640   -6.8540 C   0  0  0  0  0  3  0  0  0  0  0  0
    1.1950  -11.6260   -6.0980 C   0  0  0  0  0  0  0  0  0  0  0  0
    1.2160  -10.3820   -6.6860 F   0  0  0  0  0  0  0  0  0  0  0  0
  1 10  1  0  0  0  0
  2 11  1  0  0  0  0
  2  3  2  0  0  0  0
  3 16  1  0  0  0  0
  4  5  1  0  0  0  0
  5 15  2  0  0  0  0
  6 20  1  1  0  0  0
  7  8  1  0  0  0  0
  7  6  1  0  0  0  0
  9  7  1  0  0  0  0
 10  9  2  0  0  0  0
 10 17  1  0  0  0  0
 11  1  1  0  0  0  0
 12 11  1  0  0  0  0
 13  3  1  0  0  0  0
 13  4  2  0  0  0  0
 14  4  1  0  0  0  0
 16 17  2  0  0  0  0
 16 15  1  0  0  0  0
 17 18  1  0  0  0  0
 18 19  1  0  0  0  0
 18  6  1  0  0  0  0
 20 21  1  0  0  0  0
 20 22  1  0  0  0  0
 22 23  1  0  0  0  0
 23 24  2  0  0  0  0
 25 28  1  0  0  0  0
 25 24  1  0  0  0  0
 26 25  2  0  0  0  0
 27 26  1  0  0  0  0
 27 22  2  0  0  0  0
 28 29  1  0  0  0  0
 30 28  2  0  0  0  0
 31 32  1  0  0  0  0
 31  2  1  0  0  0  0
 32 33  1  0  0  0  0
 34 32  2  0  0  0  0
 35 34  1  0  0  0  0
 36 35  2  0  0  0  0
 36 37  1  0  0  0  0
 37 31  2  0  0  0  0
 38 37  1  0  0  0  0
M  END
>  <minimizedAffinity>
-9.21269608

>  <minimizedRMSD>
1.20433986

$$$$
