
 OpenBabel04082419573D

 19 19  0  0  1  0  0  0  0  0999 V2000
  -25.2500    3.0650   28.1980 C   0  0  1  0  0  3  0  0  0  0  0  0
  -26.1360    2.1410   28.9360 C   0  0  1  0  0  3  0  0  0  0  0  0
  -27.5920    2.2260   28.6780 C   0  0  1  0  0  3  0  0  0  0  0  0
  -28.0260    2.8690   27.4190 C   0  0  1  0  0  3  0  0  0  0  0  0
  -27.1690    3.8900   26.9140 N   0  0  0  0  0  0  0  0  0  0  0  0
  -27.5240    4.7900   26.5920 H   0  0  0  0  0  0  0  0  0  0  0  0
  -25.7820    3.5670   26.8920 C   0  0  1  0  0  3  0  0  0  0  0  0
  -28.3580    1.8300   26.3380 C   0  0  0  0  0  2  0  0  0  0  0  0
  -29.6660    1.9620   25.9020 O   0  0  0  0  0  0  0  0  0  0  0  0
  -29.8710    1.3190   25.2340 H   0  0  0  0  0  0  0  0  0  0  0  0
  -28.1320    0.9150   28.6650 O   0  0  0  0  0  0  0  0  0  0  0  0
  -29.0660    0.9680   28.4990 H   0  0  0  0  0  0  0  0  0  0  0  0
  -25.6870    0.8230   28.6840 O   0  0  0  0  0  0  0  0  0  0  0  0
  -26.2560    0.2290   29.1590 H   0  0  0  0  0  0  0  0  0  0  0  0
  -25.0380    4.8440   26.4840 C   0  0  0  0  0  2  0  0  0  0  0  0
  -25.5880    5.3800   25.3160 O   0  0  0  0  0  0  0  0  0  0  0  0
  -25.1260    6.1720   25.0640 H   0  0  0  0  0  0  0  0  0  0  0  0
  -24.9110    4.2030   28.9640 O   0  0  0  0  0  0  0  0  0  0  0  0
  -24.3420    4.7960   28.4880 H   0  0  0  0  0  0  0  0  0  0  0  0
  1  2  1  0  0  0  0
  1 18  1  1  0  0  0
  2 13  1  6  0  0  0
  3 11  1  6  0  0  0
  3  2  1  0  0  0  0
  4  8  1  6  0  0  0
  4  3  1  0  0  0  0
  5  4  1  0  0  0  0
  6  5  1  0  0  0  0
  7 15  1  1  0  0  0
  7  5  1  0  0  0  0
  7  1  1  0  0  0  0
  9  8  1  0  0  0  0
 10  9  1  0  0  0  0
 12 11  1  0  0  0  0
 13 14  1  0  0  0  0
 16 15  1  0  0  0  0
 17 16  1  0  0  0  0
 19 18  1  0  0  0  0
M  END
>  <minimizedAffinity>
-5.12441587

>  <minimizedRMSD>
0.507511854

$$$$
