
 OpenBabel04082420043D

 25 26  0  0  1  0  0  0  0  0999 V2000
   13.4290    2.3230   38.7460 C   0  0  1  0  0  3  0  0  0  0  0  0
   13.6140    2.0910   40.1740 C   0  0  0  0  0  0  0  0  0  0  0  0
   14.5760    2.4620   40.7680 O   0  0  0  0  0  0  0  0  0  0  0  0
   12.5400    1.3630   40.8800 C   0  0  2  0  0  3  0  0  0  0  0  0
   11.3330    2.2680   40.7650 C   0  0  1  0  0  3  0  0  0  0  0  0
   10.9540    2.2960   39.3120 C   0  0  0  0  0  2  0  0  0  0  0  0
   12.0060    2.6400   38.3600 C   0  0  2  0  0  0  0  0  0  0  0  0
   14.3320    3.3110   38.0930 C   0  0  0  0  0  2  0  0  0  0  0  0
   15.6620    2.8660   37.7140 C   0  0  0  0  0  0  0  0  0  0  0  0
   16.0340    2.5520   36.4170 C   0  0  0  0  0  3  0  0  0  0  0  0
   17.3100    2.1610   36.0890 C   0  0  0  0  0  3  0  0  0  0  0  0
   18.2850    2.0630   37.0550 C   0  0  0  0  0  0  0  0  0  0  0  0
   17.9570    2.3630   38.3370 C   0  0  0  0  0  3  0  0  0  0  0  0
   16.6530    2.7620   38.6610 C   0  0  0  0  0  3  0  0  0  0  0  0
   19.5590    1.6630   36.6730 O   0  0  0  0  0  0  0  0  0  0  0  0
   20.5910    2.5970   36.5150 C   0  0  0  0  0  1  0  0  0  0  0  0
   11.7430    1.9600   37.0640 C   0  0  0  0  0  0  0  0  0  0  0  0
   11.9000    2.7210   35.9140 O   0  0  0  0  0  0  0  0  0  0  0  0
   11.3960    0.7690   36.9320 O   0  0  0  0  0  1  0  0  0  0  0  0
   11.9590    4.0260   38.0740 O   0  0  0  0  0  0  0  0  0  0  0  0
   11.0620    4.2250   37.8310 H   0  0  0  0  0  0  0  0  0  0  0  0
   12.8570    1.0670   42.1940 O   0  0  0  0  0  0  0  0  0  0  0  0
   12.1670    0.5980   42.6480 H   0  0  0  0  0  0  0  0  0  0  0  0
   10.2530    1.8240   41.5000 O   0  0  0  0  0  0  0  0  0  0  0  0
    9.4940    2.3930   41.4270 H   0  0  0  0  0  0  0  0  0  0  0  0
  1  8  1  1  0  0  0
  1  2  1  0  0  0  0
  2  3  2  0  0  0  0
  2  4  1  0  0  0  0
  4 22  1  1  0  0  0
  5  4  1  0  0  0  0
  5 24  1  1  0  0  0
  6  5  1  0  0  0  0
  7 17  1  6  0  0  0
  7  1  1  0  0  0  0
  7  6  1  0  0  0  0
  9  8  1  0  0  0  0
  9 14  1  0  0  0  0
 10  9  2  0  0  0  0
 11 10  1  0  0  0  0
 11 12  2  0  0  0  0
 12 13  1  0  0  0  0
 13 14  2  0  0  0  0
 15 12  1  0  0  0  0
 16 15  1  0  0  0  0
 18 17  2  0  0  0  0
 19 17  1  0  0  0  0
 20  7  1  0  0  0  0
 21 20  1  0  0  0  0
 22 23  1  0  0  0  0
 25 24  1  0  0  0  0
M  END
>  <minimizedAffinity>
-7.91347218

>  <minimizedRMSD>
0.778694928

$$$$
