
 OpenBabel04082420123D

 18 18  0  0  1  0  0  0  0  0999 V2000
   64.5410   32.8290   27.4130 C   0  0  0  0  0  0  0  0  0  0  0  0
   65.5100   32.6550   26.3930 C   0  0  0  0  0  0  0  0  0  0  0  0
   65.4270   33.5260   25.2910 C   0  0  0  0  0  3  0  0  0  0  0  0
   64.4760   34.5130   25.1550 C   0  0  0  0  0  0  0  0  0  0  0  0
   63.5550   34.6510   26.1630 C   0  0  0  0  0  3  0  0  0  0  0  0
   63.6100   33.8090   27.2620 C   0  0  0  0  0  3  0  0  0  0  0  0
   66.4030   31.7310   26.5170 O   0  0  0  0  0  0  0  0  0  0  0  0
   67.3530   30.9020   26.6420 C   0  0  0  0  0  1  0  0  0  0  0  0
   64.5860   31.9840   28.5260 O   0  0  0  0  0  0  0  0  0  0  0  0
   63.9370   32.1010   29.2090 H   0  0  0  0  0  0  0  0  0  0  0  0
   64.4890   35.3180   23.9610 C   0  0  2  0  0  3  0  0  0  0  0  0
   63.6760   34.8920   22.9990 O   0  0  0  0  0  0  0  0  0  0  0  0
   63.6850   35.4230   22.2120 H   0  0  0  0  0  0  0  0  0  0  0  0
   65.1850   36.4580   23.6000 N   0  0  0  0  0  0  0  0  0  0  0  0
   66.1730   36.9480   24.6220 C   0  0  0  0  0  2  0  0  0  0  0  0
   67.5410   36.8090   24.0370 C   0  0  0  0  0  1  0  0  0  0  0  0
   65.1210   37.2690   22.4190 C   0  0  0  0  0  2  0  0  0  0  0  0
   65.0040   38.7430   22.6610 C   0  0  0  0  0  1  0  0  0  0  0  0
  1  9  1  0  0  0  0
  2  7  1  0  0  0  0
  2  1  2  0  0  0  0
  3  2  1  0  0  0  0
  4  3  2  0  0  0  0
  4  5  1  0  0  0  0
  5  6  2  0  0  0  0
  6  1  1  0  0  0  0
  7  8  1  0  0  0  0
  9 10  1  0  0  0  0
 11 12  1  6  0  0  0
 11  4  1  0  0  0  0
 13 12  1  0  0  0  0
 14 11  1  0  0  0  0
 14 15  1  0  0  0  0
 16 15  1  0  0  0  0
 17 18  1  0  0  0  0
 17 14  1  0  0  0  0
M  END
>  <minimizedAffinity>
-5.52596092

>  <minimizedRMSD>
0.778856397

$$$$
