
 OpenBabel04082420123D

 34 37  0  0  1  0  0  0  0  0999 V2000
  -30.3440    2.3620   25.4410 C   0  0  0  0  0  0  0  0  0  0  0  0
  -31.1430    1.8370   26.2570 O   0  0  0  0  0  0  0  0  0  0  0  0
  -28.9790    2.4780   25.8810 N   0  0  0  0  0  0  0  0  0  0  0  0
  -28.2440    2.7250   25.2180 H   0  0  0  0  0  0  0  0  0  0  0  0
  -28.6580    2.2400   27.2760 C   0  0  0  0  0  2  0  0  0  0  0  0
  -27.2010    2.4310   27.5570 C   0  0  1  0  0  3  0  0  0  0  0  0
  -26.6770    3.6600   26.9890 N   0  0  0  0  0  4  0  0  0  0  0  0
  -25.2290    3.6390   27.0120 C   0  0  1  0  0  3  0  0  0  0  0  0
  -27.0420    3.8340   26.0520 H   0  0  0  0  0  0  0  0  0  0  0  0
  -27.0540    4.4860   27.4530 H   0  0  0  0  0  0  0  0  0  0  0  0
  -24.7450    4.9790   27.5750 C   0  0  0  0  0  1  0  0  0  0  0  0
  -24.6420    2.5270   27.8130 C   0  0  2  0  0  3  0  0  0  0  0  0
  -25.3490    2.3950   29.1230 C   0  0  2  0  0  3  0  0  0  0  0  0
  -26.8520    2.4270   29.0230 C   0  0  2  0  0  3  0  0  0  0  0  0
  -23.2970    2.8010   28.1060 O   0  0  0  0  0  0  0  0  0  0  0  0
  -22.9220    2.0930   28.6150 H   0  0  0  0  0  0  0  0  0  0  0  0
  -24.8650    3.3950   29.9900 O   0  0  0  0  0  0  0  0  0  0  0  0
  -25.3140    3.3110   30.8230 H   0  0  0  0  0  0  0  0  0  0  0  0
  -27.3550    1.3300   29.7060 O   0  0  0  0  0  0  0  0  0  0  0  0
  -27.1350    1.3280   30.6300 H   0  0  0  0  0  0  0  0  0  0  0  0
  -30.7370    2.8370   24.1160 C   0  0  0  0  0  0  0  0  0  0  0  0
  -30.9980    1.9350   23.1090 C   0  0  0  0  0  0  0  0  0  0  0  0
  -30.9740    0.4870   23.0430 C   0  0  0  0  0  0  0  0  0  0  0  0
  -31.3760    2.3540   21.8310 C   0  0  0  0  0  0  0  0  0  0  0  0
  -30.6760   -0.2710   24.0090 O   0  0  0  0  0  0  0  0  0  0  0  0
  -31.3420    0.0240   21.7030 C   0  0  0  0  0  0  0  0  0  0  0  0
  -31.4820   -1.2000   21.0810 C   0  0  0  0  0  3  0  0  0  0  0  0
  -31.5830    1.1690   20.9830 C   0  0  0  0  0  0  0  0  0  0  0  0
  -31.8630   -1.2900   19.7400 C   0  0  0  0  0  3  0  0  0  0  0  0
  -32.1040   -0.1420   19.0140 C   0  0  0  0  0  3  0  0  0  0  0  0
  -31.9570    1.0660   19.6590 C   0  0  0  0  0  3  0  0  0  0  0  0
  -31.4920    3.7070   21.5670 C   0  0  0  0  0  3  0  0  0  0  0  0
  -31.2350    4.6230   22.5650 C   0  0  0  0  0  3  0  0  0  0  0  0
  -30.8640    4.1760   23.8160 C   0  0  0  0  0  3  0  0  0  0  0  0
  1  3  1  0  0  0  0
  1  2  2  0  0  0  0
  3  5  1  0  0  0  0
  4  3  1  0  0  0  0
  6  5  1  1  0  0  0
  6 14  1  0  0  0  0
  7  8  1  0  0  0  0
  7 10  1  0  0  0  0
  7  6  1  0  0  0  0
  8 11  1  1  0  0  0
  8 12  1  0  0  0  0
  9  7  1  0  0  0  0
 12 15  1  1  0  0  0
 12 13  1  0  0  0  0
 13 17  1  1  0  0  0
 14 13  1  0  0  0  0
 14 19  1  1  0  0  0
 15 16  1  0  0  0  0
 17 18  1  0  0  0  0
 19 20  1  0  0  0  0
 21  1  1  0  0  0  0
 22 21  2  0  0  0  0
 23 22  1  0  0  0  0
 23 25  2  0  0  0  0
 24 22  1  0  0  0  0
 26 23  1  0  0  0  0
 27 26  1  0  0  0  0
 28 26  2  0  0  0  0
 28 24  1  0  0  0  0
 29 27  2  0  0  0  0
 30 31  2  0  0  0  0
 30 29  1  0  0  0  0
 31 28  1  0  0  0  0
 32 24  2  0  0  0  0
 32 33  1  0  0  0  0
 33 34  2  0  0  0  0
 34 21  1  0  0  0  0
M  END
>  <minimizedAffinity>
-6.88033772

>  <minimizedRMSD>
1.25744092

$$$$
