
 OpenBabel04082420113D

 32 36  0  0  1  0  0  0  0  0999 V2000
   -3.1540   12.7030   22.8930 C   0  0  2  0  0  3  0  0  0  0  0  0
   -4.4780   12.9840   23.4040 N   0  0  2  0  0  0  0  0  0  0  0  0
   -5.1390   13.5520   22.2530 C   0  0  1  0  0  3  0  0  0  0  0  0
   -4.6830   15.0040   22.2470 C   0  0  0  0  0  2  0  0  0  0  0  0
   -4.1490   15.2740   23.6220 C   0  0  0  0  0  2  0  0  0  0  0  0
   -4.5030   14.0310   24.3790 C   0  0  0  0  0  2  0  0  0  0  0  0
   -4.5800   12.9100   21.0160 C   0  0  1  0  0  3  0  0  0  0  0  0
   -3.5010   12.0120   21.5870 C   0  0  2  0  0  3  0  0  0  0  0  0
   -4.2720   10.7560   21.7890 C   0  0  0  0  0  0  0  0  0  0  0  0
   -4.1500    9.8670   22.6830 O   0  0  0  0  0  0  0  0  0  0  0  0
   -5.5340   11.9910   20.3510 C   0  0  0  0  0  0  0  0  0  0  0  0
   -6.4320   12.3730   19.5560 O   0  0  0  0  0  0  0  0  0  0  0  0
   -5.2610   10.6580   20.7580 N   0  0  0  0  0  0  0  0  0  0  0  0
   -2.3640   11.7830   23.7130 C   0  0  0  0  0  0  0  0  0  0  0  0
   -2.7280   10.9600   24.7120 N   0  0  0  0  0  0  0  0  0  0  0  0
   -1.6700   10.2940   25.1930 C   0  0  2  0  0  3  0  0  0  0  0  0
   -3.6830   10.8570   25.0560 H   0  0  0  0  0  0  0  0  0  0  0  0
   -0.6340   10.7170   24.4720 O   0  0  0  0  0  0  0  0  0  0  0  0
   -1.0030   11.5920   23.5940 C   0  0  0  0  0  3  0  0  0  0  0  0
   -1.6210    9.3150   26.2650 C   0  0  0  0  0  0  0  0  0  0  0  0
   -2.3280    9.1860   27.4350 C   0  0  0  0  0  3  0  0  0  0  0  0
   -2.0700    8.1680   28.2500 C   0  0  0  0  0  3  0  0  0  0  0  0
   -1.1280    7.2430   27.9720 C   0  0  0  0  0  0  0  0  0  0  0  0
   -0.5400    5.8530   28.7460 Cl  0  0  0  0  0  0  0  0  0  0  0  0
   -0.5230    7.8850   26.3510 S   0  0  0  0  0  0  0  0  0  0  0  0
   -5.8700    9.4260   20.2280 C   0  0  0  0  0  2  0  0  0  0  0  0
   -4.8590    8.7520   19.3300 C   0  0  0  0  0  2  0  0  0  0  0  0
   -5.3510    8.4600   17.9550 C   0  0  0  0  0  2  0  0  0  0  0  0
   -5.9280    7.1550   17.7790 N   0  0  0  0  0  4  0  0  0  0  0  0
   -7.2400    7.0280   18.3580 C   0  0  0  0  0  1  0  0  0  0  0  0
   -5.0570    6.1960   18.4920 C   0  0  0  0  0  1  0  0  0  0  0  0
   -5.9180    6.7280   16.3960 C   0  0  0  0  0  1  0  0  0  0  0  0
  1  2  1  0  0  0  0
  1 14  1  1  0  0  0
  2  6  1  1  0  0  0
  3  4  1  6  0  0  0
  3  2  1  0  0  0  0
  4  5  1  0  0  0  0
  5  6  1  0  0  0  0
  7 11  1  1  0  0  0
  7  8  1  0  0  0  0
  7  3  1  0  0  0  0
  8  9  1  1  0  0  0
  8  1  1  0  0  0  0
  9 10  2  0  0  0  0
 11 13  1  0  0  0  0
 12 11  2  0  0  0  0
 13  9  1  0  0  0  0
 14 15  1  0  0  0  0
 15 17  1  0  0  0  0
 15 16  1  0  0  0  0
 16 20  1  6  0  0  0
 18 16  1  0  0  0  0
 19 14  2  0  0  0  0
 19 18  1  0  0  0  0
 20 25  1  0  0  0  0
 20 21  2  0  0  0  0
 21 22  1  0  0  0  0
 23 22  2  0  0  0  0
 23 24  1  0  0  0  0
 25 23  1  0  0  0  0
 26 13  1  0  0  0  0
 27 26  1  0  0  0  0
 28 27  1  0  0  0  0
 29 28  1  0  0  0  0
 29 30  1  0  0  0  0
 29 31  1  0  0  0  0
 32 29  1  0  0  0  0
M  END
>  <minimizedAffinity>
-7.88870764

>  <minimizedRMSD>
0.733978927

$$$$
