
 OpenBabel04082420123D

 26 27  0  0  0  0  0  0  0  0999 V2000
   16.3330   20.2790   47.7730 C   0  0  0  0  0  0  0  0  0  0  0  0
   15.0290   20.7920   47.7240 C   0  0  0  0  0  0  0  0  0  0  0  0
   14.8270   22.0450   48.2030 C   0  0  0  0  0  3  0  0  0  0  0  0
   17.3580   21.0360   48.2950 C   0  0  0  0  0  0  0  0  0  0  0  0
   17.0870   22.3250   48.7760 C   0  0  0  0  0  0  0  0  0  0  0  0
   15.8240   22.8530   48.7390 C   0  0  0  0  0  0  0  0  0  0  0  0
   15.4860   24.1490   49.2050 C   0  0  0  0  0  2  0  0  0  0  0  0
   14.6490   24.3810   50.3870 C   0  0  0  0  0  2  0  0  0  0  0  0
   14.4020   25.8400   50.5120 C   0  0  0  0  0  0  0  0  0  0  0  0
   15.0850   26.7250   49.6970 C   0  0  0  0  0  3  0  0  0  0  0  0
   14.8940   28.0910   49.7700 C   0  0  0  0  0  3  0  0  0  0  0  0
   14.0030   28.6100   50.6710 C   0  0  0  0  0  3  0  0  0  0  0  0
   13.3160   27.7370   51.4890 C   0  0  0  0  0  3  0  0  0  0  0  0
   13.5180   26.3790   51.4050 C   0  0  0  0  0  3  0  0  0  0  0  0
   18.1190   23.1590   49.3420 C   0  0  0  0  0  0  0  0  0  0  0  0
   19.4160   23.1580   48.8780 O   0  0  0  0  0  0  0  0  0  0  0  0
   17.8260   23.9130   50.2930 O   0  0  0  0  0  1  0  0  0  0  0  0
   14.0730   19.9560   47.1850 O   0  0  0  0  0  0  0  0  0  0  0  0
   12.8530   19.6240   47.7900 C   0  0  0  0  0  1  0  0  0  0  0  0
   18.6600   20.5580   48.3580 O   0  0  0  0  0  0  0  0  0  0  0  0
   19.3680   21.0800   48.7170 H   0  0  0  0  0  0  0  0  0  0  0  0
   16.5900   18.9030   47.2540 C   0  0  0  0  0  2  0  0  0  0  0  0
   17.3290   18.9280   45.9810 C   0  0  0  0  0  3  0  0  0  0  0  0
   16.8720   18.3010   44.9260 C   0  0  0  0  0  0  0  0  0  0  0  0
   15.5960   17.5250   44.9460 C   0  0  0  0  0  1  0  0  0  0  0  0
   17.6260   18.3350   43.6210 C   0  0  0  0  0  1  0  0  0  0  0  0
  1  4  1  0  0  0  0
  2  1  2  0  0  0  0
  2  3  1  0  0  0  0
  3  6  2  0  0  0  0
  4 20  1  0  0  0  0
  4  5  2  0  0  0  0
  5 15  1  0  0  0  0
  6  5  1  0  0  0  0
  6  7  1  0  0  0  0
  7  8  1  0  0  0  0
  8  9  1  0  0  0  0
  9 14  1  0  0  0  0
 10 11  1  0  0  0  0
 10  9  2  0  0  0  0
 11 12  2  0  0  0  0
 12 13  1  0  0  0  0
 14 13  2  0  0  0  0
 15 17  1  0  0  0  0
 16 15  2  0  0  0  0
 18  2  1  0  0  0  0
 18 19  1  0  0  0  0
 20 21  1  0  0  0  0
 22  1  1  0  0  0  0
 23 22  1  0  0  0  0
 24 25  1  0  0  0  0
 24 23  2  0  0  0  0
 26 24  1  0  0  0  0
M  END
>  <minimizedAffinity>
-7.68235588

>  <minimizedRMSD>
0.86419183

$$$$
