
 OpenBabel04082419593D

 43 44  0  0  1  0  0  0  0  0999 V2000
   27.1280  -34.1810   -5.9810 C   0  0  0  0  0  0  0  0  0  0  0  0
   27.0390  -33.6580   -4.6210 C   0  0  0  0  0  0  0  0  0  0  0  0
   26.5480  -32.3050   -4.4260 C   0  0  0  0  0  0  0  0  0  0  0  0
   26.1970  -31.5650   -5.5150 C   0  0  0  0  0  2  0  0  0  0  0  0
   26.2690  -32.0330   -6.8760 C   0  0  0  0  0  0  0  0  0  0  0  0
   26.7560  -33.3860   -7.0210 C   0  0  0  0  0  0  0  0  0  0  0  0
   27.5420  -35.5180   -6.4730 C   0  0  0  0  0  2  0  0  0  0  0  0
   26.4600  -36.6060   -6.3360 C   0  0  1  0  0  3  0  0  0  0  0  0
   25.1210  -36.1860   -6.8500 C   0  0  0  0  0  2  0  0  0  0  0  0
   23.9480  -36.9490   -6.1890 C   0  0  1  0  0  3  0  0  0  0  0  0
   22.6700  -36.2810   -6.5930 C   0  0  1  0  0  3  0  0  0  0  0  0
   21.5550  -36.2290   -5.6100 C   0  0  2  0  0  3  0  0  0  0  0  0
   20.7090  -35.0190   -5.7720 C   0  0  0  0  0  3  0  0  0  0  0  0
   20.2270  -34.1340   -4.9680 C   0  0  0  0  0  0  0  0  0  0  0  0
   20.3260  -33.9600   -3.5070 C   0  0  1  0  0  3  0  0  0  0  0  0
   21.4270  -32.8650   -3.2570 C   0  0  2  0  0  3  0  0  0  0  0  0
   22.5230  -33.1670   -4.2180 C   0  0  0  0  0  3  0  0  0  0  0  0
   23.7220  -33.6420   -3.9490 C   0  0  0  0  0  3  0  0  0  0  0  0
   24.3230  -33.9910   -2.6890 C   0  0  0  0  0  3  0  0  0  0  0  0
   25.0860  -33.3080   -1.8700 C   0  0  0  0  0  0  0  0  0  0  0  0
   25.5630  -31.9180   -2.0470 C   0  0  0  0  0  0  0  0  0  0  0  0
   26.2470  -31.5310   -3.2510 N   0  0  0  0  0  0  0  0  0  0  0  0
   26.5660  -30.5640   -3.2760 H   0  0  0  0  0  0  0  0  0  0  0  0
   25.9390  -31.3430   -7.8710 O   0  0  0  0  0  0  0  0  0  0  0  0
   26.8950  -37.8280   -7.1280 C   0  0  0  0  0  1  0  0  0  0  0  0
   21.8250  -36.6780   -4.2300 C   0  0  0  0  0  1  0  0  0  0  0  0
   19.3840  -33.0150   -5.6070 C   0  0  0  0  0  1  0  0  0  0  0  0
   25.4980  -34.0070   -0.5810 C   0  0  0  0  0  1  0  0  0  0  0  0
   25.3440  -31.1260   -1.1130 O   0  0  0  0  0  0  0  0  0  0  0  0
   19.1370  -33.3570   -2.9960 O   0  0  0  0  0  0  0  0  0  0  0  0
   17.9910  -34.1330   -2.8940 C   0  0  0  0  0  0  0  0  0  0  0  0
   17.8280  -34.8230   -1.8740 O   0  0  0  0  0  0  0  0  0  0  0  0
   17.0260  -34.1280   -3.9520 N   0  0  0  0  0  1  0  0  0  0  0  0
   21.8220  -32.9060   -1.9530 O   0  0  0  0  0  0  0  0  0  0  0  0
   21.3580  -34.0500   -1.3020 C   0  0  0  0  0  1  0  0  0  0  0  0
   22.9600  -34.9500   -6.9860 O   0  0  0  0  0  0  0  0  0  0  0  0
   22.1490  -34.5270   -7.2420 H   0  0  0  0  0  0  0  0  0  0  0  0
   23.9630  -38.1910   -6.8230 O   0  0  0  0  0  0  0  0  0  0  0  0
   23.4300  -38.2410   -8.0750 C   0  0  0  0  0  1  0  0  0  0  0  0
   27.4110  -34.4170   -3.5740 O   0  0  0  0  0  0  0  0  0  0  0  0
   27.3520  -34.0760   -2.6890 H   0  0  0  0  0  0  0  0  0  0  0  0
   26.8470  -33.9110   -8.3360 O   0  0  0  0  0  0  0  0  0  0  0  0
   27.9090  -33.5760   -9.2030 C   0  0  0  0  0  1  0  0  0  0  0  0
  1  2  1  0  0  0  0
  2  3  2  0  0  0  0
  2 40  1  0  0  0  0
  3 22  1  0  0  0  0
  4  3  1  0  0  0  0
  5  4  1  0  0  0  0
  6  5  1  0  0  0  0
  6  1  2  0  0  0  0
  7  8  1  0  0  0  0
  7  1  1  0  0  0  0
  8 25  1  6  0  0  0
  9  8  1  0  0  0  0
  9 10  1  0  0  0  0
 10 38  1  6  0  0  0
 11 36  1  1  0  0  0
 11 10  1  0  0  0  0
 11 12  1  0  0  0  0
 12 26  1  1  0  0  0
 13 12  1  0  0  0  0
 13 14  2  0  0  0  0
 14 15  1  0  0  0  0
 15 16  1  0  0  0  0
 15 30  1  6  0  0  0
 16 34  1  1  0  0  0
 17 18  2  0  0  0  0
 17 16  1  0  0  0  0
 18 19  1  0  0  0  0
 19 20  2  0  0  0  0
 20 28  1  0  0  0  0
 21 20  1  0  0  0  0
 21 29  2  0  0  0  0
 22 21  1  0  0  0  0
 23 22  1  0  0  0  0
 24  5  2  0  0  0  0
 27 14  1  0  0  0  0
 30 31  1  0  0  0  0
 31 32  2  0  0  0  0
 33 31  1  0  0  0  0
 34 35  1  0  0  0  0
 37 36  1  0  0  0  0
 39 38  1  0  0  0  0
 40 41  1  0  0  0  0
 42  6  1  0  0  0  0
 43 42  1  0  0  0  0
M  END
>  <minimizedAffinity>
-8.63811588

>  <minimizedRMSD>
1.55693877

$$$$
