
 OpenBabel04082419573D

 29 32  0  0  1  0  0  0  0  0999 V2000
   40.3330   31.2500   31.4980 C   0  0  0  0  0  0  0  0  0  0  0  0
   39.4310   31.4150   30.4700 C   0  0  0  0  0  0  0  0  0  0  0  0
   39.6640   32.4320   29.4260 C   0  0  0  0  0  1  0  0  0  0  0  0
   38.2700   30.6520   30.3620 C   0  0  0  0  0  3  0  0  0  0  0  0
   37.9910   29.6940   31.3000 C   0  0  0  0  0  3  0  0  0  0  0  0
   40.0170   30.2670   32.4330 C   0  0  0  0  0  3  0  0  0  0  0  0
   38.8810   29.5130   32.3370 C   0  0  0  0  0  0  0  0  0  0  0  0
   41.5580   32.0420   31.6190 C   0  0  0  0  0  0  0  0  0  0  0  0
   42.7080   31.7640   30.9100 C   0  0  0  0  0  3  0  0  0  0  0  0
   43.8510   32.5310   31.0400 C   0  0  0  0  0  3  0  0  0  0  0  0
   43.8820   33.6280   31.9060 C   0  0  0  0  0  0  0  0  0  0  0  0
   42.7490   33.9100   32.6140 C   0  0  0  0  0  3  0  0  0  0  0  0
   41.5930   33.1240   32.4720 C   0  0  0  0  0  3  0  0  0  0  0  0
   45.1250   34.4070   32.0040 C   0  0  0  0  0  0  0  0  0  0  0  0
   45.2190   35.3440   32.8330 O   0  0  0  0  0  0  0  0  0  0  0  0
   46.2340   34.1360   31.1860 N   0  0  0  0  0  0  0  0  0  0  0  0
   46.0120   33.7520   30.2680 H   0  0  0  0  0  0  0  0  0  0  0  0
   47.6270   34.3160   31.4470 C   0  0  0  0  0  2  0  0  0  0  0  0
   48.4600   33.1200   31.6880 C   0  0  0  0  0  3  0  0  0  0  0  0
   49.9150   32.9440   31.6490 C   0  0  0  0  0  2  0  0  0  0  0  0
   49.2390   33.0640   32.9770 C   0  0  0  0  0  2  0  0  0  0  0  0
   38.6060   28.4860   33.3650 C   0  0  1  0  0  3  0  0  0  0  0  0
   38.1650   27.2490   33.1870 N   0  0  0  0  0  0  0  0  0  0  0  0
   38.0590   26.6730   34.3760 N   0  0  0  0  0  0  0  0  0  0  0  0
   37.9450   26.8150   32.2910 H   0  0  0  0  0  0  0  0  0  0  0  0
   38.4400   27.5610   35.3130 C   0  0  1  0  0  3  0  0  0  0  0  0
   37.7430   25.7190   34.5510 H   0  0  0  0  0  0  0  0  0  0  0  0
   38.7640   28.6480   34.6560 O   0  0  0  0  0  0  0  0  0  0  0  0
   38.4850   27.3550   36.8000 C   0  0  0  0  0  1  0  0  0  0  0  0
  1  8  1  0  0  0  0
  1  6  1  0  0  0  0
  2  1  2  0  0  0  0
  3  2  1  0  0  0  0
  4  2  1  0  0  0  0
  4  5  2  0  0  0  0
  5  7  1  0  0  0  0
  7  6  2  0  0  0  0
  8 13  1  0  0  0  0
  9 10  1  0  0  0  0
  9  8  2  0  0  0  0
 10 11  2  0  0  0  0
 11 14  1  0  0  0  0
 11 12  1  0  0  0  0
 13 12  2  0  0  0  0
 14 15  2  0  0  0  0
 16 18  1  0  0  0  0
 16 14  1  0  0  0  0
 17 16  1  0  0  0  0
 18 19  1  0  0  0  0
 19 21  1  0  0  0  0
 20 19  1  0  0  0  0
 20 21  1  0  0  0  0
 22  7  1  6  0  0  0
 22 28  1  0  0  0  0
 23 22  1  0  0  0  0
 23 24  1  0  0  0  0
 24 27  1  0  0  0  0
 24 26  1  0  0  0  0
 25 23  1  0  0  0  0
 26 29  1  1  0  0  0
 28 26  1  0  0  0  0
M  END
>  <minimizedAffinity>
-8.9568224

>  <minimizedRMSD>
0.646291733

$$$$
