
 OpenBabel04082420033D

 25 26  0  0  1  0  0  0  0  0999 V2000
   15.0780   56.0770   37.5960 C   0  0  0  0  0  0  0  0  0  0  0  0
   15.5030   55.0670   36.7490 C   0  0  0  0  0  3  0  0  0  0  0  0
   15.0010   55.7950   38.9440 C   0  0  0  0  0  3  0  0  0  0  0  0
   15.3310   54.5500   39.4630 C   0  0  0  0  0  3  0  0  0  0  0  0
   15.7540   53.5720   38.5560 C   0  0  0  0  0  3  0  0  0  0  0  0
   15.8400   53.8290   37.2100 C   0  0  0  0  0  0  0  0  0  0  0  0
   16.3010   52.7060   36.3150 C   0  0  0  0  0  2  0  0  0  0  0  0
   17.6730   52.9260   35.8210 C   0  0  0  0  0  2  0  0  0  0  0  0
   18.2530   51.7830   35.0890 C   0  0  0  0  0  2  0  0  0  0  0  0
   19.3270   50.9510   35.6470 C   0  0  2  0  0  3  0  0  0  0  0  0
   20.3700   51.5640   36.9350 P   0  0  0  0  0  0  0  0  0  0  0  0
   21.4970   52.6570   36.1790 O   0  0  0  0  0  0  0  0  0  0  0  0
   19.5810   52.4010   38.1440 O   0  0  0  0  0  1  0  0  0  0  0  0
   21.2920   50.5360   37.5660 O   0  0  0  0  0  1  0  0  0  0  0  0
   20.4010   50.4890   34.2500 S   0  0  0  0  0  0  0  0  0  0  0  0
   21.4040   49.5360   34.8090 O   0  0  0  0  0  1  0  0  0  0  0  0
   20.9980   51.6990   33.6380 O   0  0  0  0  0  1  0  0  0  0  0  0
   19.4590   49.6780   33.1430 O   0  0  0  0  0  1  0  0  0  0  0  0
   14.7430   57.3270   37.0960 O   0  0  0  0  0  0  0  0  0  0  0  0
   13.8060   58.1240   37.7210 C   0  0  0  0  0  0  0  0  0  0  0  0
   12.6020   58.3790   37.1110 C   0  0  0  0  0  3  0  0  0  0  0  0
   11.6320   59.1810   37.7170 C   0  0  0  0  0  3  0  0  0  0  0  0
   11.8870   59.7310   38.9550 C   0  0  0  0  0  3  0  0  0  0  0  0
   13.0870   59.4870   39.5820 C   0  0  0  0  0  3  0  0  0  0  0  0
   14.0310   58.6850   38.9520 C   0  0  0  0  0  3  0  0  0  0  0  0
  1  3  1  0  0  0  0
  2  6  1  0  0  0  0
  2  1  2  0  0  0  0
  3  4  2  0  0  0  0
  5  4  1  0  0  0  0
  6  5  2  0  0  0  0
  7  6  1  0  0  0  0
  8  7  1  0  0  0  0
  9  8  1  0  0  0  0
 10  9  1  6  0  0  0
 10 11  1  0  0  0  0
 11 14  1  0  0  0  0
 11 13  1  0  0  0  0
 12 11  2  0  0  0  0
 15 16  1  0  0  0  0
 15 10  1  0  0  0  0
 17 15  1  0  0  0  0
 18 15  1  0  0  0  0
 19  1  1  0  0  0  0
 19 20  1  0  0  0  0
 20 25  1  0  0  0  0
 21 22  1  0  0  0  0
 21 20  2  0  0  0  0
 22 23  2  0  0  0  0
 23 24  1  0  0  0  0
 25 24  2  0  0  0  0
M  END
>  <minimizedAffinity>
-7.47335529

>  <minimizedRMSD>
0.833458185

$$$$
