
 OpenBabel04082420043D

 28 29  0  0  1  0  0  0  0  0999 V2000
   15.0270   55.6430   37.5050 C   0  0  0  0  0  0  0  0  0  0  0  0
   15.3500   55.0340   36.3220 C   0  0  0  0  0  3  0  0  0  0  0  0
   16.3110   54.0140   36.3090 C   0  0  0  0  0  3  0  0  0  0  0  0
   15.6570   55.2340   38.6550 C   0  0  0  0  0  3  0  0  0  0  0  0
   16.6010   54.2270   38.6250 C   0  0  0  0  0  3  0  0  0  0  0  0
   16.9390   53.6030   37.4360 C   0  0  0  0  0  0  0  0  0  0  0  0
   17.9560   52.5270   37.4860 C   0  0  0  0  0  2  0  0  0  0  0  0
   18.9770   52.6660   36.4100 C   0  0  0  0  0  2  0  0  0  0  0  0
   19.6520   51.4130   36.0800 C   0  0  0  0  0  2  0  0  0  0  0  0
   21.0510   51.3080   35.7430 C   0  0  2  0  0  3  0  0  0  0  0  0
   21.2180   50.0170   34.4230 P   0  0  0  0  0  0  0  0  0  0  0  0
   19.8050   49.9850   33.4950 O   0  0  0  0  0  0  0  0  0  0  0  0
   22.5940   50.2520   33.5130 O   0  0  0  0  0  1  0  0  0  0  0  0
   21.3100   48.6730   35.1350 O   0  0  0  0  0  1  0  0  0  0  0  0
   22.4020   51.2130   36.7520 S   0  0  0  0  0  0  0  0  0  0  0  0
   22.5460   49.9850   37.5850 O   0  0  0  0  0  1  0  0  0  0  0  0
   22.7240   52.4210   37.5850 O   0  0  0  0  0  1  0  0  0  0  0  0
   23.7970   51.1130   35.7150 O   0  0  0  0  0  1  0  0  0  0  0  0
   14.0420   56.7120   37.6100 C   0  0  0  0  0  0  0  0  0  0  0  0
   13.8920   57.4890   38.7380 C   0  0  0  0  0  3  0  0  0  0  0  0
   12.9440   58.4860   38.7820 C   0  0  0  0  0  3  0  0  0  0  0  0
   12.1010   58.7500   37.6940 C   0  0  0  0  0  0  0  0  0  0  0  0
   12.2560   57.9710   36.5760 C   0  0  0  0  0  3  0  0  0  0  0  0
   13.2210   56.9570   36.5350 C   0  0  0  0  0  3  0  0  0  0  0  0
   11.1010   59.8570   37.8140 C   0  0  0  0  0  2  0  0  0  0  0  0
   10.6370   59.9240   39.2300 C   0  0  0  0  0  2  0  0  0  0  0  0
    9.3110   60.5780   39.3380 C   0  0  0  0  0  2  0  0  0  0  0  0
    9.2840   61.9120   38.6480 C   0  0  0  0  0  1  0  0  0  0  0  0
  1 19  1  0  0  0  0
  1  4  1  0  0  0  0
  2  1  2  0  0  0  0
  3  2  1  0  0  0  0
  3  6  2  0  0  0  0
  5  4  2  0  0  0  0
  6  7  1  0  0  0  0
  6  5  1  0  0  0  0
  8  7  1  0  0  0  0
  9  8  1  0  0  0  0
 10  9  1  1  0  0  0
 10 15  1  0  0  0  0
 11 14  1  0  0  0  0
 11 10  1  0  0  0  0
 12 11  2  0  0  0  0
 13 11  1  0  0  0  0
 15 16  1  0  0  0  0
 15 17  1  0  0  0  0
 18 15  1  0  0  0  0
 19 20  1  0  0  0  0
 20 21  2  0  0  0  0
 22 25  1  0  0  0  0
 22 21  1  0  0  0  0
 23 22  2  0  0  0  0
 24 23  1  0  0  0  0
 24 19  2  0  0  0  0
 25 26  1  0  0  0  0
 26 27  1  0  0  0  0
 28 27  1  0  0  0  0
M  END
>  <minimizedAffinity>
-8.53917789

>  <minimizedRMSD>
1.2529304

$$$$
