
 OpenBabel04082419593D

 30 32  0  0  1  0  0  0  0  0999 V2000
   18.8020  -12.6080   21.5520 N   0  0  0  0  0  0  0  0  0  0  0  0
   18.5190  -11.8120   20.4270 C   0  0  1  0  0  3  0  0  0  0  0  0
   19.6020  -12.3340   19.4670 C   0  0  0  0  0  2  0  0  0  0  0  0
   20.8050  -12.1970   20.4120 C   0  0  0  0  0  2  0  0  0  0  0  0
   20.2150  -12.2480   21.8330 C   0  0  0  0  0  2  0  0  0  0  0  0
   18.0960  -13.5430   22.2930 C   0  0  0  0  0  0  0  0  0  0  0  0
   16.9860  -13.3430   22.8620 O   0  0  0  0  0  0  0  0  0  0  0  0
   17.1980  -11.7660   19.8460 C   0  0  0  0  0  0  0  0  0  0  0  0
   16.8160  -12.5640   18.9800 O   0  0  0  0  0  0  0  0  0  0  0  0
   16.2530  -10.7710   20.2560 N   0  0  0  0  0  2  0  0  0  0  0  0
   14.9310  -10.6150   19.7130 C   0  0  0  0  0  2  0  0  0  0  0  0
   13.8710  -10.8350   20.7410 C   0  0  0  0  0  0  0  0  0  0  0  0
   13.3880  -12.0770   21.0910 C   0  0  0  0  0  3  0  0  0  0  0  0
   12.4040  -12.2360   22.0650 C   0  0  0  0  0  3  0  0  0  0  0  0
   11.8760  -11.1350   22.7180 C   0  0  0  0  0  0  0  0  0  0  0  0
   12.3530   -9.8820   22.3750 C   0  0  0  0  0  3  0  0  0  0  0  0
   13.3250   -9.7360   21.4120 C   0  0  0  0  0  3  0  0  0  0  0  0
   10.8460  -11.2950   23.7410 C   0  0  0  0  0  0  0  0  0  0  0  0
   10.9560  -10.5690   24.9390 N   0  0  0  0  0  2  0  0  0  0  0  0
    9.8460  -12.0800   23.5700 N   0  0  0  0  0  2  0  0  0  0  0  0
    9.7590  -12.6940   22.7330 H   0  0  0  0  0  0  0  0  0  0  0  0
   18.6500  -14.9250   22.4700 C   0  0  2  0  0  3  0  0  0  0  0  0
   17.6210  -15.9000   22.0370 N   0  0  0  0  0  1  0  0  0  0  0  0
   18.9050  -15.1780   23.9630 C   0  0  0  0  0  2  0  0  0  0  0  0
   20.0320  -14.3290   24.3850 C   0  0  0  0  0  0  0  0  0  0  0  0
   19.7930  -13.2250   25.1790 C   0  0  0  0  0  3  0  0  0  0  0  0
   20.8020  -12.3980   25.6040 C   0  0  0  0  0  3  0  0  0  0  0  0
   22.0860  -12.6910   25.2180 C   0  0  0  0  0  3  0  0  0  0  0  0
   22.3710  -13.7690   24.4350 C   0  0  0  0  0  3  0  0  0  0  0  0
   21.3440  -14.5830   24.0210 C   0  0  0  0  0  3  0  0  0  0  0  0
  1  5  1  0  0  0  0
  1  6  1  0  0  0  0
  2  8  1  6  0  0  0
  2  1  1  0  0  0  0
  3  4  1  0  0  0  0
  3  2  1  0  0  0  0
  4  5  1  0  0  0  0
  6 22  1  0  0  0  0
  6  7  2  0  0  0  0
  8 10  1  0  0  0  0
  9  8  2  0  0  0  0
 11 10  1  0  0  0  0
 11 12  1  0  0  0  0
 12 13  2  0  0  0  0
 12 17  1  0  0  0  0
 13 14  1  0  0  0  0
 14 15  2  0  0  0  0
 15 18  1  0  0  0  0
 16 15  1  0  0  0  0
 17 16  2  0  0  0  0
 18 19  2  0  0  0  0
 20 18  1  0  0  0  0
 21 20  1  0  0  0  0
 22 23  1  1  0  0  0
 22 24  1  0  0  0  0
 24 25  1  0  0  0  0
 25 26  1  0  0  0  0
 26 27  2  0  0  0  0
 28 27  1  0  0  0  0
 29 28  2  0  0  0  0
 30 25  2  0  0  0  0
 30 29  1  0  0  0  0
M  END
>  <minimizedAffinity>
-8.93321705

>  <minimizedRMSD>
0.763284624

$$$$
