
 OpenBabel04082420163D

 25 26  0  0  0  0  0  0  0  0999 V2000
   14.4100   58.1130   37.5360 C   0  0  0  0  0  0  0  0  0  0  0  0
   15.6100   57.5890   37.1080 C   0  0  0  0  0  3  0  0  0  0  0  0
   13.5840   57.4860   38.4540 C   0  0  0  0  0  3  0  0  0  0  0  0
   14.0400   56.2740   38.9260 C   0  0  0  0  0  3  0  0  0  0  0  0
   15.2370   55.7280   38.5120 C   0  0  0  0  0  3  0  0  0  0  0  0
   16.0660   56.3690   37.5840 C   0  0  0  0  0  0  0  0  0  0  0  0
   17.3170   55.7510   37.1430 C   0  0  0  0  0  2  0  0  0  0  0  0
   17.5290   55.7570   35.6340 C   0  0  0  0  0  2  0  0  0  0  0  0
   18.8820   55.0710   35.4240 C   0  0  0  0  0  2  0  0  0  0  0  0
   19.0390   53.9570   36.2840 N   0  0  0  0  0  0  0  0  0  0  0  0
   20.2150   53.1840   36.2770 C   0  0  0  0  0  0  0  0  0  0  0  0
   20.9240   53.1350   35.2430 O   0  0  0  0  0  0  0  0  0  0  0  0
   18.2840   53.7100   36.9230 H   0  0  0  0  0  0  0  0  0  0  0  0
   20.6160   52.4220   37.5190 C   0  0  0  0  0  2  0  0  0  0  0  0
   20.7240   53.6660   38.8580 P   0  0  0  0  0  0  0  0  0  0  0  0
   19.1940   53.8840   39.5310 O   0  0  0  0  0  1  0  0  0  0  0  0
   21.7980   53.1040   40.0440 O   0  0  0  0  0  1  0  0  0  0  0  0
   21.2900   54.9350   38.2640 O   0  0  0  0  0  0  0  0  0  0  0  0
   13.9720   59.3450   37.0320 O   0  0  0  0  0  0  0  0  0  0  0  0
   12.6380   59.6650   37.4070 C   0  0  0  0  0  0  0  0  0  0  0  0
   12.3560   60.5290   38.4380 C   0  0  0  0  0  3  0  0  0  0  0  0
   11.0590   60.8390   38.8020 C   0  0  0  0  0  3  0  0  0  0  0  0
   10.0100   60.2670   38.1130 C   0  0  0  0  0  3  0  0  0  0  0  0
   10.2470   59.3960   37.0730 C   0  0  0  0  0  3  0  0  0  0  0  0
   11.5770   59.1090   36.7370 C   0  0  0  0  0  3  0  0  0  0  0  0
  1  3  1  0  0  0  0
  2  1  2  0  0  0  0
  2  6  1  0  0  0  0
  3  4  2  0  0  0  0
  5  4  1  0  0  0  0
  6  5  2  0  0  0  0
  7  6  1  0  0  0  0
  8  7  1  0  0  0  0
  9  8  1  0  0  0  0
  9 10  1  0  0  0  0
 10 13  1  0  0  0  0
 11 10  1  0  0  0  0
 11 14  1  0  0  0  0
 12 11  2  0  0  0  0
 14 15  1  0  0  0  0
 15 16  1  0  0  0  0
 15 17  1  0  0  0  0
 18 15  2  0  0  0  0
 19 20  1  0  0  0  0
 19  1  1  0  0  0  0
 20 21  1  0  0  0  0
 21 22  2  0  0  0  0
 23 22  1  0  0  0  0
 24 23  2  0  0  0  0
 25 24  1  0  0  0  0
 25 20  2  0  0  0  0
M  END
>  <minimizedAffinity>
-6.94166851

>  <minimizedRMSD>
0.869919419

$$$$
