
 OpenBabel04082419563D

 69 71  0  0  1  0  0  0  0  0999 V2000
   18.9780    3.4500    4.0060 C   0  0  0  0  0  0  0  0  0  0  0  0
   19.7120    2.9410    3.1830 O   0  0  0  0  0  0  0  0  0  0  0  0
   18.1500    4.5420    3.6350 N   0  0  0  0  0  0  0  0  0  0  0  0
   18.9090    2.9610    5.4200 C   0  0  2  0  0  3  0  0  0  0  0  0
   17.6230    2.8820    5.9980 N   0  0  0  0  0  2  0  0  0  0  0  0
   16.5860    2.1120    5.4380 C   0  0  0  0  0  0  0  0  0  0  0  0
   16.6810    1.7770    4.2280 O   0  0  0  0  0  0  0  0  0  0  0  0
   15.4190    1.7140    6.3010 C   0  0  0  0  0  2  0  0  0  0  0  0
   15.4840    2.2220    7.6880 C   0  0  0  0  0  2  0  0  0  0  0  0
   14.3570    1.9880    8.5910 C   0  0  0  0  0  3  0  0  0  0  0  0
   13.2050    2.8650    8.7300 C   0  0  0  0  0  3  0  0  0  0  0  0
   12.0010    2.4270    9.4440 C   0  0  0  0  0  3  0  0  0  0  0  0
   11.1220    3.4110    9.9520 N   0  0  0  0  0  0  0  0  0  0  0  0
   11.5310    4.7530   10.0100 C   0  0  0  0  0  0  0  0  0  0  0  0
   12.7490    5.0810    9.8080 O   0  0  0  0  0  0  0  0  0  0  0  0
   10.5570    5.8250   10.3100 C   0  0  1  0  0  3  0  0  0  0  0  0
    9.5500    5.3260   11.0760 O   0  0  0  0  0  0  0  0  0  0  0  0
    9.4540    6.0280   12.2390 C   0  0  2  0  0  3  0  0  0  0  0  0
   10.2900    7.2830   12.1390 C   0  0  2  0  0  3  0  0  0  0  0  0
    9.4290    8.3550   11.8390 O   0  0  0  0  0  1  0  0  0  0  0  0
   11.1600    7.0360   10.9590 C   0  0  2  0  0  3  0  0  0  0  0  0
   11.1690    8.1040   10.0620 O   0  0  0  0  0  1  0  0  0  0  0  0
    9.9940    5.2740   13.3480 N   0  0  0  0  0  0  0  0  0  0  0  0
    9.4120    5.0870   14.5230 C   0  0  0  0  0  0  0  0  0  0  0  0
    8.2160    5.4820   15.0230 N   0  0  0  0  0  0  0  0  0  0  0  0
   10.2480    4.3480   15.3140 C   0  0  0  0  0  0  0  0  0  0  0  0
    7.8480    5.1620   16.2720 C   0  0  0  0  0  2  0  0  0  0  0  0
    8.6760    4.4360   17.0450 N   0  0  0  0  0  0  0  0  0  0  0  0
    9.8870    4.0130   16.5920 C   0  0  0  0  0  0  0  0  0  0  0  0
   10.7330    3.2530   17.4380 N   0  0  0  0  0  1  0  0  0  0  0  0
   11.3490    4.0870   14.6000 N   0  0  0  0  0  0  0  0  0  0  0  0
   11.2030    4.6530   13.3900 C   0  0  0  0  0  2  0  0  0  0  0  0
   19.7320    3.8430    6.3190 C   0  0  0  0  0  2  0  0  0  0  0  0
   19.5060    3.6480    7.7630 C   0  0  0  0  0  2  0  0  0  0  0  0
   19.9750    2.4880    8.5040 C   0  0  0  0  0  2  0  0  0  0  0  0
   20.4630    2.5330    9.8920 C   0  0  0  0  0  2  0  0  0  0  0  0
   21.0370    1.1570   10.2300 N   0  0  0  0  0  1  0  0  0  0  0  0
   18.5050    5.8670    3.2530 C   0  0  0  0  0  3  0  0  0  0  0  0
   17.4190    6.8850    3.2460 C   0  0  0  0  0  2  0  0  0  0  0  0
   17.8610    8.2730    3.4480 C   0  0  0  0  0  3  0  0  0  0  0  0
   17.0210    9.4310    3.3110 C   0  0  0  0  0  3  0  0  0  0  0  0
   17.5120   10.8190    3.5570 C   0  0  0  0  0  2  0  0  0  0  0  0
   16.3370   11.7650    3.3650 C   0  0  0  0  0  0  0  0  0  0  0  0
   16.1770   12.2760    2.2180 O   0  0  0  0  0  0  0  0  0  0  0  0
   15.4570   12.0890    4.3870 N   0  0  0  0  0  2  0  0  0  0  0  0
   15.5970   13.4180    5.1270 C   0  0  2  0  0  3  0  0  0  0  0  0
   14.3240   13.5470    5.8550 C   0  0  0  0  0  2  0  0  0  0  0  0
   13.2860   12.5700    5.9130 C   0  0  0  0  0  2  0  0  0  0  0  0
   12.5710   12.0440    7.0750 C   0  0  0  0  0  2  0  0  0  0  0  0
   12.6050   10.6120    7.2120 N   0  0  0  0  0  2  0  0  0  0  0  0
   13.4470   10.0270    8.1850 C   0  0  0  0  0  0  0  0  0  0  0  0
   13.3200    8.6580    8.6300 N   0  0  0  0  0  2  0  0  0  0  0  0
   14.4360   10.6690    8.7600 N   0  0  0  0  0  2  0  0  0  0  0  0
   15.1330   11.1850    8.1550 H   0  0  0  0  0  0  0  0  0  0  0  0
   16.1140   14.3720    4.1910 C   0  0  0  0  0  0  0  0  0  0  0  0
   17.3620   14.2170    3.8080 O   0  0  0  0  0  0  0  0  0  0  0  0
   15.5040   15.4870    3.6000 N   0  0  0  0  0  2  0  0  0  0  0  0
   16.0810   16.8600    3.8790 C   0  0  2  0  0  3  0  0  0  0  0  0
   17.5080   16.6740    3.4930 C   0  0  0  0  0  3  0  0  0  0  0  0
   18.5110   17.7110    3.6980 C   0  0  0  0  0  3  0  0  0  0  0  0
   19.9140   17.5820    3.2770 C   0  0  0  0  0  2  0  0  0  0  0  0
   20.1130   17.5760    1.8370 N   0  0  0  0  0  2  0  0  0  0  0  0
   19.6650   18.6690    1.0300 C   0  0  0  0  0  0  0  0  0  0  0  0
   19.4590   18.4780   -0.3480 N   0  0  0  0  0  2  0  0  0  0  0  0
   19.4540   19.8140    1.5950 N   0  0  0  0  0  2  0  0  0  0  0  0
   19.1770   20.6110    1.0050 H   0  0  0  0  0  0  0  0  0  0  0  0
   15.7820   17.1620    5.2630 C   0  0  0  0  0  0  0  0  0  0  0  0
   14.6110   17.1830    5.7180 O   0  0  0  0  0  0  0  0  0  0  0  0
   16.8000   17.4660    6.2370 N   0  0  0  0  0  1  0  0  0  0  0  0
  1  4  1  0  0  0  0
  2  1  2  0  0  0  0
  3  1  1  0  0  0  0
  4  5  1  0  0  0  0
  4 33  1  1  0  0  0
  6  5  1  0  0  0  0
  6  8  1  0  0  0  0
  7  6  2  0  0  0  0
  8  9  1  0  0  0  0
  9 10  1  0  0  0  0
 10 11  2  0  0  0  0
 11 12  1  0  0  0  0
 12 13  2  0  0  0  0
 13 14  1  0  0  0  0
 15 14  2  0  0  0  0
 16 14  1  1  0  0  0
 16 21  1  0  0  0  0
 16 17  1  0  0  0  0
 17 18  1  0  0  0  0
 18 23  1  1  0  0  0
 19 20  1  6  0  0  0
 19 18  1  0  0  0  0
 21 22  1  6  0  0  0
 21 19  1  0  0  0  0
 23 32  1  0  0  0  0
 23 24  1  0  0  0  0
 24 25  2  0  0  0  0
 24 26  1  0  0  0  0
 25 27  1  0  0  0  0
 26 29  1  0  0  0  0
 27 28  1  0  0  0  0
 29 28  2  0  0  0  0
 29 30  1  0  0  0  0
 31 26  2  0  0  0  0
 32 31  1  0  0  0  0
 33 34  1  0  0  0  0
 34 35  1  0  0  0  0
 35 36  1  0  0  0  0
 36 37  1  0  0  0  0
 38  3  2  0  0  0  0
 39 38  1  0  0  0  0
 39 40  1  0  0  0  0
 41 40  2  0  0  0  0
 41 42  1  0  0  0  0
 43 42  1  0  0  0  0
 43 45  1  0  0  0  0
 44 43  2  0  0  0  0
 45 46  1  0  0  0  0
 46 47  1  6  0  0  0
 47 48  1  0  0  0  0
 48 49  1  0  0  0  0
 49 50  1  0  0  0  0
 50 51  1  0  0  0  0
 51 52  2  0  0  0  0
 51 53  1  0  0  0  0
 54 53  1  0  0  0  0
 55 46  1  0  0  0  0
 56 55  2  0  0  0  0
 57 58  1  0  0  0  0
 57 55  1  0  0  0  0
 58 59  1  1  0  0  0
 58 67  1  0  0  0  0
 59 60  2  0  0  0  0
 61 60  1  0  0  0  0
 62 61  1  0  0  0  0
 63 65  1  0  0  0  0
 63 62  1  0  0  0  0
 64 63  2  0  0  0  0
 66 65  1  0  0  0  0
 67 68  2  0  0  0  0
 67 69  1  0  0  0  0
M  END
>  <minimizedAffinity>
-3.36549807

>  <minimizedRMSD>
1.57624984

$$$$
