
 OpenBabel04082420083D

 34 37  0  0  1  0  0  0  0  0999 V2000
   18.8810  -12.1590   20.6320 C   0  0  0  0  0  2  0  0  0  0  0  0
   18.8180  -13.2760   19.6110 C   0  0  0  0  0  2  0  0  0  0  0  0
   19.7080  -12.9760   18.4220 C   0  0  0  0  0  2  0  0  0  0  0  0
   21.1260  -12.8660   18.8880 C   0  0  0  0  0  2  0  0  0  0  0  0
   21.5840  -11.4360   18.8580 C   0  0  0  0  0  2  0  0  0  0  0  0
   22.8570  -11.3850   19.5590 N   0  0  0  0  0  0  0  0  0  0  0  0
   23.9810  -11.6390   18.8590 C   0  0  0  0  0  0  0  0  0  0  0  0
   25.2160  -11.6120   19.4920 C   0  0  0  0  0  0  0  0  0  0  0  0
   23.9900  -11.9290   17.5160 C   0  0  0  0  0  3  0  0  0  0  0  0
   25.2610  -11.3240   20.8330 C   0  0  0  0  0  0  0  0  0  0  0  0
   26.3890  -11.8700   18.7770 C   0  0  0  0  0  2  0  0  0  0  0  0
   24.1010  -11.0740   21.4990 C   0  0  0  0  0  3  0  0  0  0  0  0
   26.5090  -11.2940   21.4870 N   0  0  0  0  0  1  0  0  0  0  0  0
   22.8630  -11.0990   20.8720 C   0  0  0  0  0  0  0  0  0  0  0  0
   21.6320  -10.8250   21.6590 C   0  0  0  0  0  1  0  0  0  0  0  0
   26.3350  -12.1570   17.4300 C   0  0  0  0  0  3  0  0  0  0  0  0
   25.1220  -12.1900   16.7710 C   0  0  0  0  0  3  0  0  0  0  0  0
   18.1060  -10.9830   20.1360 C   0  0  0  0  0  2  0  0  0  0  0  0
   16.8960  -10.6880   20.9510 C   0  0  0  0  0  2  0  0  0  0  0  0
   16.0720   -9.5770   20.3650 C   0  0  0  0  0  2  0  0  0  0  0  0
   14.8400   -9.3840   21.1300 C   0  0  0  0  0  2  0  0  0  0  0  0
   14.7260   -9.3330   22.4080 C   0  0  0  0  0  2  0  0  0  0  0  0
   13.8950   -8.5690   23.2080 N   0  0  0  0  0  0  0  0  0  0  0  0
   14.5550   -7.9200   24.2470 C   0  0  2  0  0  3  0  0  0  0  0  0
   15.8980   -8.1300   24.4830 C   0  0  0  0  0  3  0  0  0  0  0  0
   13.8770   -7.0670   25.0560 C   0  0  0  0  0  0  0  0  0  0  0  0
   16.5970   -7.5080   25.5110 C   0  0  0  0  0  3  0  0  0  0  0  0
   15.8890   -6.6450   26.3190 C   0  0  0  0  0  3  0  0  0  0  0  0
   14.5440   -6.4200   26.1030 C   0  0  0  0  0  3  0  0  0  0  0  0
   12.5260   -6.8390   24.8490 C   0  0  0  0  0  0  0  0  0  0  0  0
   11.8950   -7.4890   23.8150 C   0  0  0  0  0  3  0  0  0  0  0  0
   11.8530   -5.9550   25.7020 N   0  0  0  0  0  1  0  0  0  0  0  0
   12.6110   -8.3580   22.9970 C   0  0  0  0  0  0  0  0  0  0  0  0
   11.8860   -8.9070   21.8060 C   0  0  0  0  0  1  0  0  0  0  0  0
  2  1  1  0  0  0  0
  3  4  1  0  0  0  0
  3  2  1  0  0  0  0
  5  4  1  0  0  0  0
  5  6  1  0  0  0  0
  6 14  1  0  0  0  0
  7  8  1  0  0  0  0
  7  6  1  0  0  0  0
  8 10  2  0  0  0  0
  9  7  2  0  0  0  0
 10 13  1  0  0  0  0
 10 12  1  0  0  0  0
 11  8  1  0  0  0  0
 14 12  2  0  0  0  0
 14 15  1  0  0  0  0
 16 11  1  0  0  0  0
 17 16  2  0  0  0  0
 17  9  1  0  0  0  0
 18  1  1  0  0  0  0
 18 19  1  0  0  0  0
 20 19  1  0  0  0  0
 20 21  1  0  0  0  0
 21 22  1  0  0  0  0
 22 23  1  0  0  0  0
 23 24  1  0  0  0  0
 24 25  1  1  0  0  0
 24 26  1  0  0  0  0
 25 27  2  0  0  0  0
 26 29  1  0  0  0  0
 27 28  1  0  0  0  0
 29 28  2  0  0  0  0
 30 26  2  0  0  0  0
 30 32  1  0  0  0  0
 31 30  1  0  0  0  0
 33 23  1  0  0  0  0
 33 31  2  0  0  0  0
 34 33  1  0  0  0  0
M  END
>  <minimizedAffinity>
-5.43551302

>  <minimizedRMSD>
1.6127969

$$$$
