
 OpenBabel04082420103D

 43 47  0  0  1  0  0  0  0  0999 V2000
   14.2660   -8.0640   24.1390 C   0  0  0  0  0  3  0  0  0  0  0  0
   14.8420   -7.4200   25.2350 C   0  0  0  0  0  3  0  0  0  0  0  0
   16.2020   -7.3090   25.3940 C   0  0  0  0  0  3  0  0  0  0  0  0
   17.0110   -7.8570   24.4320 C   0  0  0  0  0  3  0  0  0  0  0  0
   16.4750   -8.5010   23.3340 C   0  0  0  0  0  0  0  0  0  0  0  0
   17.3580   -9.0760   22.3240 C   0  0  0  0  0  0  0  0  0  0  0  0
   18.5870   -8.9880   22.4460 O   0  0  0  0  0  0  0  0  0  0  0  0
   16.7960   -9.7630   21.1550 C   0  0  0  0  0  0  0  0  0  0  0  0
   17.6730  -10.2930   20.2200 C   0  0  0  0  0  0  0  0  0  0  0  0
   17.1460  -10.9370   19.1230 C   0  0  0  0  0  0  0  0  0  0  0  0
   17.9310  -11.5540   18.0390 C   0  0  2  0  0  3  0  0  0  0  0  0
   17.4650  -13.0210   17.9390 C   0  0  0  0  0  2  0  0  0  0  0  0
   15.9890  -13.1060   17.7350 C   0  0  2  0  0  0  0  0  0  0  0  0
   15.2790  -11.7570   17.7750 C   0  0  0  0  0  2  0  0  0  0  0  0
   15.7650  -11.0440   18.9740 C   0  0  0  0  0  0  0  0  0  0  0  0
   14.9380  -10.5110   19.9120 C   0  0  0  0  0  0  0  0  0  0  0  0
   15.4180   -9.8520   21.0350 C   0  0  0  0  0  0  0  0  0  0  0  0
   14.5170   -9.2870   22.0290 C   0  0  0  0  0  0  0  0  0  0  0  0
   13.2800   -9.3850   21.8900 O   0  0  0  0  0  0  0  0  0  0  0  0
   15.1070   -8.6040   23.1910 C   0  0  0  0  0  0  0  0  0  0  0  0
   19.2840  -11.4390   18.1580 O   0  0  0  0  0  0  0  0  0  0  0  0
   19.9310  -12.6740   18.1330 C   0  0  1  0  0  3  0  0  0  0  0  0
   21.2660  -12.5220   17.5060 C   0  0  0  0  0  2  0  0  0  0  0  0
   22.1900  -11.7520   18.3940 C   0  0  1  0  0  3  0  0  0  0  0  0
   21.6700  -11.6740   19.8030 C   0  0  1  0  0  3  0  0  0  0  0  0
   20.8960  -12.8700   20.2410 C   0  0  1  0  0  3  0  0  0  0  0  0
   19.9210  -13.2840   19.3620 O   0  0  0  0  0  0  0  0  0  0  0  0
   21.7790  -14.0180   20.7020 C   0  0  0  0  0  1  0  0  0  0  0  0
   23.5060  -12.4580   18.3640 N   0  0  0  0  0  4  0  0  0  0  0  0
   23.4380  -13.4450   18.6130 H   0  0  0  0  0  0  0  0  0  0  0  0
   23.8700  -12.5890   17.4200 H   0  0  0  0  0  0  0  0  0  0  0  0
   24.1370  -11.9330   18.9690 H   0  0  0  0  0  0  0  0  0  0  0  0
   22.7320  -11.4520   20.6470 O   0  0  0  0  0  0  0  0  0  0  0  0
   22.4020  -11.4020   21.5360 H   0  0  0  0  0  0  0  0  0  0  0  0
   19.0470  -10.2030   20.3440 O   0  0  0  0  0  0  0  0  0  0  0  0
   19.6470  -10.5670   19.7040 H   0  0  0  0  0  0  0  0  0  0  0  0
   15.4700  -13.8740   18.8030 O   0  0  0  0  0  0  0  0  0  0  0  0
   14.5290  -13.9290   18.6730 H   0  0  0  0  0  0  0  0  0  0  0  0
   15.6820  -13.7450   16.4380 C   0  0  0  0  0  0  0  0  0  0  0  0
   15.0660  -14.7950   16.4640 O   0  0  0  0  0  0  0  0  0  0  0  0
   16.1270  -13.0960   15.1910 C   0  0  0  0  0  1  0  0  0  0  0  0
   13.5460  -10.6120   19.7720 O   0  0  0  0  0  0  0  0  0  0  0  0
   12.9680  -10.2390   20.4280 H   0  0  0  0  0  0  0  0  0  0  0  0
  1  2  1  0  0  0  0
  2  3  2  0  0  0  0
  4  3  1  0  0  0  0
  5  4  2  0  0  0  0
  6  7  2  0  0  0  0
  6  5  1  0  0  0  0
  8  6  1  0  0  0  0
  9 35  1  0  0  0  0
  9  8  2  0  0  0  0
 10  9  1  0  0  0  0
 11 21  1  1  0  0  0
 11 10  1  0  0  0  0
 12 11  1  0  0  0  0
 13 39  1  6  0  0  0
 13 14  1  0  0  0  0
 13 12  1  0  0  0  0
 13 37  1  0  0  0  0
 14 15  1  0  0  0  0
 15 10  2  0  0  0  0
 15 16  1  0  0  0  0
 16 17  2  0  0  0  0
 17  8  1  0  0  0  0
 17 18  1  0  0  0  0
 18 20  1  0  0  0  0
 19 18  2  0  0  0  0
 20  5  1  0  0  0  0
 20  1  2  0  0  0  0
 22 21  1  1  0  0  0
 22 27  1  0  0  0  0
 23 22  1  0  0  0  0
 23 24  1  0  0  0  0
 24 29  1  1  0  0  0
 24 25  1  0  0  0  0
 25 26  1  0  0  0  0
 25 33  1  1  0  0  0
 26 28  1  6  0  0  0
 27 26  1  0  0  0  0
 29 30  1  0  0  0  0
 29 32  1  0  0  0  0
 31 29  1  0  0  0  0
 33 34  1  0  0  0  0
 36 35  1  0  0  0  0
 38 37  1  0  0  0  0
 39 40  2  0  0  0  0
 41 39  1  0  0  0  0
 42 16  1  0  0  0  0
 42 43  1  0  0  0  0
M  END
>  <minimizedAffinity>
-9.28667927

>  <minimizedRMSD>
2.83455062

$$$$
