
 OpenBabel04082420053D

 25 30  0  0  0  0  0  0  0  0999 V2000
   18.6770   -9.1480   23.2870 N   0  0  0  0  0  0  0  0  0  0  0  0
   23.2260  -11.9240   19.6900 C   0  0  0  0  0  2  0  0  0  0  0  0
   22.7330  -11.2190   20.8290 O   0  0  0  0  0  0  0  0  0  0  0  0
   20.9530  -11.5230   19.4880 C   0  0  0  0  0  0  0  0  0  0  0  0
   22.0840  -12.0850   18.8640 O   0  0  0  0  0  0  0  0  0  0  0  0
   21.3760  -11.0060   20.6810 C   0  0  0  0  0  0  0  0  0  0  0  0
   13.6270   -7.2360   25.6030 O   0  0  0  0  0  0  0  0  0  0  0  0
   19.6260  -11.4150   19.1440 C   0  0  0  0  0  3  0  0  0  0  0  0
   15.8310   -7.1940   25.9480 O   0  0  0  0  0  0  0  0  0  0  0  0
   18.7290  -10.7980   19.9820 C   0  0  0  0  0  0  0  0  0  0  0  0
   19.1750  -10.2740   21.2070 C   0  0  0  0  0  0  0  0  0  0  0  0
   20.4950  -10.3690   21.5620 C   0  0  0  0  0  3  0  0  0  0  0  0
   17.4130  -10.6410   19.6380 C   0  0  0  0  0  3  0  0  0  0  0  0
   16.4970   -9.9950   20.4290 C   0  0  0  0  0  3  0  0  0  0  0  0
   18.2710   -9.6330   22.0220 C   0  0  0  0  0  0  0  0  0  0  0  0
   17.9790   -8.0240   23.8840 C   0  0  0  0  0  2  0  0  0  0  0  0
   16.4940   -8.2590   23.7230 C   0  0  0  0  0  0  0  0  0  0  0  0
   16.0300   -8.7890   22.5430 C   0  0  0  0  0  0  0  0  0  0  0  0
   16.9160   -9.4800   21.6360 C   0  0  0  0  0  0  0  0  0  0  0  0
   14.6510   -8.8150   22.3190 C   0  0  0  0  0  3  0  0  0  0  0  0
   13.8200   -8.3050   23.3180 C   0  0  0  0  0  3  0  0  0  0  0  0
   14.2720   -7.7810   24.5000 C   0  0  0  0  0  0  0  0  0  0  0  0
   15.6480   -7.7660   24.6930 C   0  0  0  0  0  0  0  0  0  0  0  0
   14.6070   -7.1760   26.6500 C   0  0  0  0  0  2  0  0  0  0  0  0
   19.6630   -9.8890   24.0550 C   0  0  0  0  0  1  0  0  0  0  0  0
  1 16  1  0  0  0  0
  1 25  1  0  0  0  0
  2  3  1  0  0  0  0
  4  6  1  0  0  0  0
  5  4  1  0  0  0  0
  5  2  1  0  0  0  0
  6  3  1  0  0  0  0
  6 12  2  0  0  0  0
  7 24  1  0  0  0  0
  8  4  2  0  0  0  0
  8 10  1  0  0  0  0
  9 24  1  0  0  0  0
 10 11  1  0  0  0  0
 11 12  1  0  0  0  0
 11 15  2  0  0  0  0
 13 10  2  0  0  0  0
 13 14  1  0  0  0  0
 14 19  2  0  0  0  0
 15  1  1  0  0  0  0
 17 16  1  0  0  0  0
 17 23  1  0  0  0  0
 18 17  2  0  0  0  0
 19 15  1  0  0  0  0
 19 18  1  0  0  0  0
 20 18  1  0  0  0  0
 20 21  2  0  0  0  0
 21 22  1  0  0  0  0
 22 23  2  0  0  0  0
 22  7  1  0  0  0  0
 23  9  1  0  0  0  0
M  END
>  <minimizedAffinity>
-8.24006081

>  <minimizedRMSD>
0.306732148

$$$$
