
 OpenBabel04082419583D

 20 22  0  0  1  0  0  0  0  0999 V2000
   14.2390   -7.1270   24.9170 N   0  0  0  0  0  0  0  0  0  0  0  0
   14.7690   -6.2790   25.1160 H   0  0  0  0  0  0  0  0  0  0  0  0
   13.2880   -7.4840   25.6770 C   0  0  0  0  0  2  0  0  0  0  0  0
   12.1920   -7.8430   26.8050 S   0  0  0  0  0  1  0  0  0  0  0  0
   14.5580   -7.9260   23.7780 C   0  0  0  0  0  0  0  0  0  0  0  0
   15.8640   -8.1310   23.3970 C   0  0  0  0  0  3  0  0  0  0  0  0
   16.1490   -8.9150   22.2840 C   0  0  0  0  0  0  0  0  0  0  0  0
   15.1670   -9.5110   21.5220 C   0  0  0  0  0  0  0  0  0  0  0  0
   17.3350   -9.2760   21.6920 C   0  0  0  0  0  3  0  0  0  0  0  0
   13.8480   -9.2920   21.9230 C   0  0  0  0  0  3  0  0  0  0  0  0
   15.7200  -10.1760   20.5530 O   0  0  0  0  0  0  0  0  0  0  0  0
   13.5630   -8.5150   23.0280 C   0  0  0  0  0  3  0  0  0  0  0  0
   17.0470  -10.0760   20.5970 C   0  0  0  0  0  0  0  0  0  0  0  0
   17.9990  -10.6890   19.6730 C   0  0  2  0  0  3  0  0  0  0  0  0
   19.2130  -10.9550   19.9680 N   0  0  0  0  0  0  0  0  0  0  0  0
   19.9020  -11.5580   18.8450 C   0  0  0  0  0  3  0  0  0  0  0  0
   19.6410  -10.7680   20.8750 H   0  0  0  0  0  0  0  0  0  0  0  0
   18.8800  -11.7120   17.7440 C   0  0  0  0  0  3  0  0  0  0  0  0
   17.7040  -11.0650   18.3380 N   0  0  0  0  0  0  0  0  0  0  0  0
   16.8120  -10.9120   17.8650 H   0  0  0  0  0  0  0  0  0  0  0  0
  1  2  1  0  0  0  0
  1  3  1  0  0  0  0
  3  4  1  0  0  0  0
  5  1  1  0  0  0  0
  6  5  1  0  0  0  0
  7  6  2  0  0  0  0
  8 10  2  0  0  0  0
  8  7  1  0  0  0  0
  9  7  1  0  0  0  0
 10 12  1  0  0  0  0
 11 13  1  0  0  0  0
 11  8  1  0  0  0  0
 12  5  2  0  0  0  0
 13  9  2  0  0  0  0
 14 15  1  0  0  0  0
 14 13  1  6  0  0  0
 15 17  1  0  0  0  0
 16 15  1  0  0  0  0
 18 19  1  0  0  0  0
 18 16  2  0  0  0  0
 19 14  1  0  0  0  0
 20 19  1  0  0  0  0
M  END
>  <minimizedAffinity>
-6.00567341

>  <minimizedRMSD>
1.61115682

$$$$
