
 OpenBabel04082419543D

 41 45  0  0  1  0  0  0  0  0999 V2000
   15.9800   50.2360   64.3590 C   0  0  0  0  0  0  0  0  0  0  0  0
   16.2360   50.8120   63.1910 C   0  0  0  0  0  0  0  0  0  0  0  0
   15.5620   50.3850   61.9650 C   0  0  0  0  0  3  0  0  0  0  0  0
   14.6850   49.3640   61.9510 C   0  0  0  0  0  0  0  0  0  0  0  0
   14.4320   48.6290   63.1900 C   0  0  1  0  0  0  0  0  0  0  0  0
   14.9610   49.1460   64.4000 C   0  0  0  0  0  0  0  0  0  0  0  0
   13.8680   48.7780   61.0000 O   0  0  0  0  0  0  0  0  0  0  0  0
   12.8770   48.0200   61.6790 C   0  0  0  0  0  0  0  0  0  0  0  0
   13.0780   48.0860   63.0400 C   0  0  0  0  0  0  0  0  0  0  0  0
   11.8140   47.3280   61.0740 C   0  0  0  0  0  0  0  0  0  0  0  0
   10.9500   46.7130   61.9430 C   0  0  0  0  0  0  0  0  0  0  0  0
   11.1320   46.7790   63.3350 C   0  0  0  0  0  3  0  0  0  0  0  0
   12.1880   47.4600   63.8920 C   0  0  0  0  0  0  0  0  0  0  0  0
   14.6280   48.7460   65.5210 O   0  0  0  0  0  0  0  0  0  0  0  0
   15.2850   47.2780   62.8960 C   0  0  0  0  0  1  0  0  0  0  0  0
   11.7080   47.3310   59.6300 C   0  0  0  0  0  0  0  0  0  0  0  0
   10.6840   46.6750   58.9390 N   0  0  0  0  0  0  0  0  0  0  0  0
   10.1530   45.9330   59.3930 H   0  0  0  0  0  0  0  0  0  0  0  0
   12.5620   47.9420   58.9100 O   0  0  0  0  0  0  0  0  0  0  0  0
   10.3770   47.0650   57.5470 C   0  0  0  0  0  2  0  0  0  0  0  0
    9.0070   47.6000   57.5050 C   0  0  0  0  0  0  0  0  0  0  0  0
    8.7890   48.8850   57.0690 C   0  0  0  0  0  0  0  0  0  0  0  0
    7.4980   49.4240   56.9920 C   0  0  0  0  0  3  0  0  0  0  0  0
    6.4350   48.6360   57.3660 C   0  0  0  0  0  3  0  0  0  0  0  0
    6.6220   47.3490   57.8070 C   0  0  0  0  0  0  0  0  0  0  0  0
    7.9230   46.8370   57.8730 C   0  0  0  0  0  0  0  0  0  0  0  0
    5.5310   46.6000   58.1660 C   0  0  0  0  0  3  0  0  0  0  0  0
    8.0800   45.5480   58.3120 C   0  0  0  0  0  3  0  0  0  0  0  0
    6.9810   44.7770   58.6780 C   0  0  0  0  0  3  0  0  0  0  0  0
    5.7070   45.3000   58.6070 C   0  0  0  0  0  3  0  0  0  0  0  0
    9.9510   49.7210   56.6930 C   0  0  0  0  0  2  0  0  0  0  0  0
   10.2720   50.8000   57.6930 C   0  0  0  0  0  1  0  0  0  0  0  0
    9.8640   46.0040   61.4430 O   0  0  0  0  0  0  0  0  0  0  0  0
    8.9220   45.3770   62.2730 C   0  0  0  0  0  1  0  0  0  0  0  0
   12.3850   47.5390   65.2470 O   0  0  0  0  0  0  0  0  0  0  0  0
   11.7720   47.1090   65.8330 H   0  0  0  0  0  0  0  0  0  0  0  0
   17.1740   51.8470   63.1660 O   0  0  0  0  0  0  0  0  0  0  0  0
   17.3580   52.2610   62.3300 H   0  0  0  0  0  0  0  0  0  0  0  0
   16.6330   50.6030   65.5960 C   0  0  0  0  0  0  0  0  0  0  0  0
   17.9580   50.0490   65.9320 C   0  0  0  0  0  1  0  0  0  0  0  0
   16.0850   51.3930   66.3930 O   0  0  0  0  0  0  0  0  0  0  0  0
  1  6  1  0  0  0  0
  1 39  1  0  0  0  0
  2  1  2  0  0  0  0
  3  2  1  0  0  0  0
  4  3  2  0  0  0  0
  4  5  1  0  0  0  0
  5 15  1  6  0  0  0
  5  6  1  0  0  0  0
  6 14  2  0  0  0  0
  7  8  1  0  0  0  0
  7  4  1  0  0  0  0
  8  9  1  0  0  0  0
  9  5  1  0  0  0  0
  9 13  2  0  0  0  0
 10  8  2  0  0  0  0
 10 11  1  0  0  0  0
 11 12  2  0  0  0  0
 12 13  1  0  0  0  0
 13 35  1  0  0  0  0
 16 10  1  0  0  0  0
 17 18  1  0  0  0  0
 17 16  1  0  0  0  0
 19 16  2  0  0  0  0
 20 17  1  0  0  0  0
 21 20  1  0  0  0  0
 21 26  1  0  0  0  0
 22 21  2  0  0  0  0
 23 22  1  0  0  0  0
 23 24  2  0  0  0  0
 24 25  1  0  0  0  0
 25 26  2  0  0  0  0
 25 27  1  0  0  0  0
 26 28  1  0  0  0  0
 27 30  2  0  0  0  0
 28 29  2  0  0  0  0
 30 29  1  0  0  0  0
 31 22  1  0  0  0  0
 31 32  1  0  0  0  0
 33 11  1  0  0  0  0
 33 34  1  0  0  0  0
 35 36  1  0  0  0  0
 37  2  1  0  0  0  0
 38 37  1  0  0  0  0
 39 40  1  0  0  0  0
 39 41  2  0  0  0  0
M  END
>  <minimizedAffinity>
-11.0316296

>  <minimizedRMSD>
0.553698838

$$$$
