
 OpenBabel04082420163D

 19 20  0  0  1  0  0  0  0  0999 V2000
    9.7990    4.5170   12.3600 C   0  0  1  0  0  3  0  0  0  0  0  0
   10.1020    3.2650   12.7480 N   0  0  0  0  0  0  0  0  0  0  0  0
   11.0360    2.8950   12.5710 H   0  0  0  0  0  0  0  0  0  0  0  0
    8.5680    4.9800   12.6030 N   0  0  0  0  0  0  0  0  0  0  0  0
    8.3360    5.9300   12.3100 H   0  0  0  0  0  0  0  0  0  0  0  0
    7.6240    4.2440   13.2190 C   0  0  1  0  0  3  0  0  0  0  0  0
    6.3470    4.7770   13.4500 N   0  0  0  0  0  1  0  0  0  0  0  0
    7.9610    2.9840   13.5980 N   0  0  0  0  0  0  0  0  0  0  0  0
    7.2690    2.3990   14.0680 H   0  0  0  0  0  0  0  0  0  0  0  0
    9.1920    2.4970   13.3640 C   0  0  2  0  0  3  0  0  0  0  0  0
    9.5390    1.1340   13.7810 C   0  0  0  0  0  0  0  0  0  0  0  0
   10.3220    0.9500   14.9080 C   0  0  0  0  0  3  0  0  0  0  0  0
   10.6370   -0.3420   15.2810 C   0  0  0  0  0  3  0  0  0  0  0  0
   10.1950   -1.4370   14.5670 C   0  0  0  0  0  3  0  0  0  0  0  0
    9.4210   -1.2190   13.4550 C   0  0  0  0  0  3  0  0  0  0  0  0
    9.0850    0.0610   13.0490 C   0  0  0  0  0  0  0  0  0  0  0  0
    8.0910    0.3070   11.6190 Cl  0  0  0  0  0  0  0  0  0  0  0  0
   11.0560    5.4940   11.5420 S   0  0  0  0  0  0  0  0  0  0  0  0
   12.6310    5.1400   12.3680 C   0  0  0  0  0  1  0  0  0  0  0  0
  1 18  1  1  0  0  0
  1  4  1  0  0  0  0
  1  2  1  0  0  0  0
  2 10  1  0  0  0  0
  3  2  1  0  0  0  0
  4  6  1  0  0  0  0
  5  4  1  0  0  0  0
  6  7  1  6  0  0  0
  6  8  1  0  0  0  0
  8  9  1  0  0  0  0
 10  8  1  0  0  0  0
 10 11  1  1  0  0  0
 11 12  1  0  0  0  0
 12 13  2  0  0  0  0
 14 13  1  0  0  0  0
 15 14  2  0  0  0  0
 16 15  1  0  0  0  0
 16 11  2  0  0  0  0
 17 16  1  0  0  0  0
 18 19  1  0  0  0  0
M  END
>  <minimizedAffinity>
-6.83209991

>  <minimizedRMSD>
0.813498259

$$$$
