
 OpenBabel04082420073D

 32 32  0  0  1  0  0  0  0  0999 V2000
   28.5230    1.4000    3.7650 C   0  0  0  0  0  0  0  0  0  0  0  0
   27.3510    0.9910    3.9020 O   0  0  0  0  0  0  0  0  0  0  0  0
   28.7490    2.8030    3.8440 N   0  0  0  0  0  0  0  0  0  0  0  0
   29.7130    3.1130    3.9640 H   0  0  0  0  0  0  0  0  0  0  0  0
   29.6610    0.4560    3.5310 C   0  0  2  0  0  0  0  0  0  0  0  0
   29.0610   -0.8340    2.8800 C   0  0  0  0  0  1  0  0  0  0  0  0
   30.3450    0.0200    4.7820 C   0  0  0  0  0  2  0  0  0  0  0  0
   30.3570    0.9410    5.8290 O   0  0  0  0  0  0  0  0  0  0  0  0
   30.0660    0.7630    7.1510 C   0  0  0  0  0  0  0  0  0  0  0  0
   29.3290    1.7610    7.7880 C   0  0  0  0  0  3  0  0  0  0  0  0
   28.9800    1.6730    9.1220 C   0  0  0  0  0  0  0  0  0  0  0  0
   28.2660    2.6860    9.6810 F   0  0  0  0  0  0  0  0  0  0  0  0
   29.3460    0.5940    9.8780 C   0  0  0  0  0  0  0  0  0  0  0  0
   28.9390    0.4410   11.5770 Cl  0  0  0  0  0  0  0  0  0  0  0  0
   30.0630   -0.3960    9.2830 C   0  0  0  0  0  3  0  0  0  0  0  0
   30.4140   -0.3080    7.9370 C   0  0  0  0  0  3  0  0  0  0  0  0
   30.5260    0.9290    2.5940 O   0  0  0  0  0  0  0  0  0  0  0  0
   30.0900    1.2070    1.7960 H   0  0  0  0  0  0  0  0  0  0  0  0
   27.7510    3.8050    3.7730 C   0  0  0  0  0  0  0  0  0  0  0  0
   26.4090    3.6240    3.8270 C   0  0  0  0  0  3  0  0  0  0  0  0
   25.4890    4.6240    3.7410 C   0  0  0  0  0  0  0  0  0  0  0  0
   25.9620    5.9470    3.5820 C   0  0  0  0  0  0  0  0  0  0  0  0
   27.3320    6.1710    3.5250 C   0  0  0  0  0  3  0  0  0  0  0  0
   28.2000    5.1320    3.6160 C   0  0  0  0  0  3  0  0  0  0  0  0
   24.0310    4.4230    3.8050 C   0  0  0  0  0  0  0  0  0  0  0  0
   23.6120    3.1860    3.4030 F   0  0  0  0  0  0  0  0  0  0  0  0
   23.5920    4.6210    5.1210 F   0  0  0  0  0  0  0  0  0  0  0  0
   23.4170    5.4380    3.0740 F   0  0  0  0  0  0  0  0  0  0  0  0
   25.0240    6.9350    3.4360 C   0  0  0  0  0  2  0  0  0  0  0  0
   24.1630    7.8640    3.2870 N   0  0  0  0  0  1  0  0  0  0  0  0
   25.0870    7.6210    2.9290 H   0  0  0  0  0  0  0  0  0  0  0  0
   23.4640    8.5990    3.1780 H   0  0  0  0  0  0  0  0  0  0  0  0
  1  3  1  0  0  0  0
  1  2  2  0  0  0  0
  3  4  1  0  0  0  0
  5  6  1  6  0  0  0
  5  1  1  0  0  0  0
  5  7  1  0  0  0  0
  7  8  1  0  0  0  0
  8  9  1  0  0  0  0
  9 10  2  0  0  0  0
  9 16  1  0  0  0  0
 10 11  1  0  0  0  0
 11 12  1  0  0  0  0
 11 13  2  0  0  0  0
 13 14  1  0  0  0  0
 15 13  1  0  0  0  0
 16 15  2  0  0  0  0
 17  5  1  0  0  0  0
 18 17  1  0  0  0  0
 19 20  1  0  0  0  0
 19  3  1  0  0  0  0
 21 25  1  0  0  0  0
 21 20  2  0  0  0  0
 22 21  1  0  0  0  0
 23 22  2  0  0  0  0
 23 24  1  0  0  0  0
 24 19  2  0  0  0  0
 25 27  1  0  0  0  0
 26 25  1  0  0  0  0
 28 25  1  0  0  0  0
 29 22  1  0  0  0  0
 31 29  1  0  0  0  0
 32 30  1  0  0  0  0
M  END
>  <minimizedAffinity>
-11.4415703

>  <minimizedRMSD>
0.595086634

$$$$
