
 OpenBabel04082420083D

 34 35  0  0  1  0  0  0  0  0999 V2000
   29.4210    0.7630    3.8830 C   0  0  1  0  0  0  0  0  0  0  0  0
   28.8260   -0.4620    3.1780 C   0  0  0  0  0  1  0  0  0  0  0  0
   29.8170    0.3160    5.2650 C   0  0  0  0  0  2  0  0  0  0  0  0
   29.8090    1.3640    6.1960 O   0  0  0  0  0  0  0  0  0  0  0  0
   29.9000    1.1240    7.5500 C   0  0  0  0  0  0  0  0  0  0  0  0
   28.8690    1.5000    8.3680 C   0  0  0  0  0  3  0  0  0  0  0  0
   28.9580    1.2620    9.7290 C   0  0  0  0  0  3  0  0  0  0  0  0
   30.0750    0.6490   10.2640 C   0  0  0  0  0  0  0  0  0  0  0  0
   31.0910    0.2870    9.4020 C   0  0  0  0  0  3  0  0  0  0  0  0
   31.0240    0.5160    8.0450 C   0  0  0  0  0  3  0  0  0  0  0  0
   30.1590    0.4090   11.6540 N   0  0  0  0  0  0  0  0  0  0  0  0
   29.1180    0.8190   12.5540 C   0  0  0  0  0  0  0  0  0  0  0  0
   29.3720    0.6650   14.0200 C   0  0  0  0  0  1  0  0  0  0  0  0
   28.0330    1.2880   12.1130 O   0  0  0  0  0  0  0  0  0  0  0  0
   30.9800   -0.0680   12.0290 H   0  0  0  0  0  0  0  0  0  0  0  0
   30.5180    1.1450    3.1460 O   0  0  0  0  0  0  0  0  0  0  0  0
   30.2680    1.4270    2.2730 H   0  0  0  0  0  0  0  0  0  0  0  0
   28.3990    1.8240    3.8830 C   0  0  0  0  0  0  0  0  0  0  0  0
   27.2030    1.5220    4.1290 O   0  0  0  0  0  0  0  0  0  0  0  0
   28.6740    3.1870    3.6180 N   0  0  0  0  0  0  0  0  0  0  0  0
   29.6380    3.4630    3.4290 H   0  0  0  0  0  0  0  0  0  0  0  0
   27.6470    4.2040    3.6050 C   0  0  0  0  0  0  0  0  0  0  0  0
   26.3260    3.8880    3.7830 C   0  0  0  0  0  3  0  0  0  0  0  0
   25.3460    4.8920    3.7660 C   0  0  0  0  0  0  0  0  0  0  0  0
   25.6610    6.2070    3.5730 C   0  0  0  0  0  0  0  0  0  0  0  0
   27.0270    6.5180    3.3910 C   0  0  0  0  0  3  0  0  0  0  0  0
   27.9760    5.5290    3.4100 C   0  0  0  0  0  3  0  0  0  0  0  0
   23.9260    4.4940    3.9900 C   0  0  0  0  0  0  0  0  0  0  0  0
   23.7920    3.1300    3.8500 F   0  0  0  0  0  0  0  0  0  0  0  0
   23.5630    4.7750    5.3170 F   0  0  0  0  0  0  0  0  0  0  0  0
   23.0500    5.1210    3.1530 F   0  0  0  0  0  0  0  0  0  0  0  0
   24.6990    7.2350    3.5260 N   0  0  0  0  0  0  0  0  0  0  0  0
   24.2860    7.9030    2.4240 O   0  0  0  0  0  0  0  0  0  0  0  0
   24.1660    7.5670    4.6240 O   0  0  0  0  0  0  0  0  0  0  0  0
  1  2  1  6  0  0  0
  1 18  1  0  0  0  0
  1  3  1  0  0  0  0
  3  4  1  0  0  0  0
  4  5  1  0  0  0  0
  5 10  2  0  0  0  0
  5  6  1  0  0  0  0
  6  7  2  0  0  0  0
  7  8  1  0  0  0  0
  8 11  1  0  0  0  0
  9  8  2  0  0  0  0
 10  9  1  0  0  0  0
 11 15  1  0  0  0  0
 11 12  1  0  0  0  0
 12 13  1  0  0  0  0
 14 12  2  0  0  0  0
 16  1  1  0  0  0  0
 17 16  1  0  0  0  0
 18 19  2  0  0  0  0
 20 18  1  0  0  0  0
 21 20  1  0  0  0  0
 22 20  1  0  0  0  0
 22 23  1  0  0  0  0
 24 23  2  0  0  0  0
 24 28  1  0  0  0  0
 25 24  1  0  0  0  0
 26 27  1  0  0  0  0
 26 25  2  0  0  0  0
 27 22  2  0  0  0  0
 28 30  1  0  0  0  0
 29 28  1  0  0  0  0
 31 28  1  0  0  0  0
 32 25  1  0  0  0  0
 32 34  2  0  0  0  0
 33 32  2  0  0  0  0
M  END
>  <minimizedAffinity>
-11.559804

>  <minimizedRMSD>
0.671993196

$$$$
