
 OpenBabel04082420063D

 48 51  0  0  1  0  0  0  0  0999 V2000
   12.9110   16.0990   17.0330 C   0  0  0  0  0  0  0  0  0  0  0  0
   11.7710   15.7970   16.5400 O   0  0  0  0  0  0  0  0  0  0  0  0
   13.7250   15.0210   17.4840 N   0  0  0  0  0  0  0  0  0  0  0  0
   13.3220   13.6490   17.6830 C   0  0  1  0  0  3  0  0  0  0  0  0
   14.5880   12.8890   17.7680 C   0  0  0  0  0  2  0  0  0  0  0  0
   15.6020   13.8280   18.3060 C   0  0  0  0  0  2  0  0  0  0  0  0
   15.1210   15.1850   17.8640 C   0  0  0  0  0  2  0  0  0  0  0  0
   13.3360   17.4520   17.1260 C   0  0  1  0  0  3  0  0  0  0  0  0
   13.7980   18.1640   15.9560 N   0  0  0  0  0  0  0  0  0  0  0  0
   13.6910   18.0220   14.5820 C   0  0  0  0  0  0  0  0  0  0  0  0
   14.4190   19.3390   16.6670 C   0  0  2  0  0  3  0  0  0  0  0  0
   13.3010   16.8000   14.2330 O   0  0  0  0  0  0  0  0  0  0  0  0
   13.2560   19.7170   17.5920 C   0  0  2  0  0  3  0  0  0  0  0  0
   14.7660   20.4470   15.7460 C   0  0  0  0  0  2  0  0  0  0  0  0
   12.3400   18.4710   17.6350 C   0  0  0  0  0  2  0  0  0  0  0  0
   12.5750   20.9080   17.0120 C   0  0  0  0  0  2  0  0  0  0  0  0
   13.5470   22.0710   17.0910 C   0  0  0  0  0  2  0  0  0  0  0  0
   14.9440   21.6980   16.6380 C   0  0  0  0  0  2  0  0  0  0  0  0
   13.8990   18.8540   13.4310 C   0  0  2  0  0  3  0  0  0  0  0  0
   14.9450   19.8610   13.5320 N   0  0  0  0  0  1  0  0  0  0  0  0
   12.6420   19.5930   12.9840 C   0  0  0  0  0  2  0  0  0  0  0  0
   11.8250   18.7200   12.0830 C   0  0  0  0  0  2  0  0  0  0  0  0
   10.5670   18.9830   11.7890 C   0  0  0  0  0  2  0  0  0  0  0  0
    9.5420   18.0050   11.8330 N   0  0  0  0  0  2  0  0  0  0  0  0
    8.6440   17.8600   10.7270 C   0  0  0  0  0  0  0  0  0  0  0  0
    7.7930   18.9410   10.3930 N   0  0  0  0  0  2  0  0  0  0  0  0
    8.5870   16.7860   10.0310 N   0  0  0  0  0  2  0  0  0  0  0  0
    8.4510   15.8670   10.4810 H   0  0  0  0  0  0  0  0  0  0  0  0
   12.4380   13.4750   18.8620 C   0  0  0  0  0  0  0  0  0  0  0  0
   11.9140   12.3250   18.9860 O   0  0  0  0  0  0  0  0  0  0  0  0
   12.1860   14.4970   19.7840 N   0  0  0  0  0  2  0  0  0  0  0  0
   10.8510   14.8400   20.1700 C   0  0  2  0  0  3  0  0  0  0  0  0
   10.1130   15.5210   19.0310 C   0  0  0  0  0  1  0  0  0  0  0  0
   10.8930   15.8260   21.2780 C   0  0  0  0  0  0  0  0  0  0  0  0
   11.5070   16.9100   21.1290 O   0  0  0  0  0  0  0  0  0  0  0  0
   10.2490   15.5800   22.5210 N   0  0  0  0  0  2  0  0  0  0  0  0
   10.2240   16.5880   23.5760 C   0  0  1  0  0  3  0  0  0  0  0  0
    9.1040   17.5580   23.3070 C   0  0  0  0  0  2  0  0  0  0  0  0
    9.6140   18.9380   23.0530 C   0  0  0  0  0  0  0  0  0  0  0  0
   10.5760   19.5080   23.8700 C   0  0  0  0  0  3  0  0  0  0  0  0
   11.0480   20.7770   23.6410 C   0  0  0  0  0  3  0  0  0  0  0  0
   10.5870   21.5470   22.5840 C   0  0  0  0  0  0  0  0  0  0  0  0
    9.6300   20.9670   21.7790 C   0  0  0  0  0  3  0  0  0  0  0  0
   11.1060   22.9190   22.3490 C   0  0  0  0  0  1  0  0  0  0  0  0
    9.1470   19.6910   22.0000 C   0  0  0  0  0  3  0  0  0  0  0  0
   10.0330   15.9090   24.8900 C   0  0  0  0  0  0  0  0  0  0  0  0
    8.9990   15.2170   25.1000 O   0  0  0  0  0  0  0  0  0  0  0  0
   11.0090   16.0380   25.9070 N   0  0  0  0  0  1  0  0  0  0  0  0
  1  3  1  0  0  0  0
  2  1  2  0  0  0  0
  3  4  1  0  0  0  0
  3  7  1  0  0  0  0
  4  5  1  0  0  0  0
  4 29  1  1  0  0  0
  5  6  1  0  0  0  0
  7  6  1  0  0  0  0
  8  1  1  6  0  0  0
  8 15  1  0  0  0  0
  9 11  1  0  0  0  0
  9  8  1  0  0  0  0
 10  9  1  0  0  0  0
 11 14  1  6  0  0  0
 11 13  1  0  0  0  0
 12 10  2  0  0  0  0
 13 16  1  6  0  0  0
 13 15  1  0  0  0  0
 14 18  1  0  0  0  0
 16 17  1  0  0  0  0
 18 17  1  0  0  0  0
 19 20  1  1  0  0  0
 19 10  1  0  0  0  0
 21 19  1  0  0  0  0
 22 21  1  0  0  0  0
 23 24  1  0  0  0  0
 23 22  1  0  0  0  0
 25 24  1  0  0  0  0
 26 25  2  0  0  0  0
 27 28  1  0  0  0  0
 27 25  1  0  0  0  0
 29 30  2  0  0  0  0
 29 31  1  0  0  0  0
 31 32  1  0  0  0  0
 32 33  1  6  0  0  0
 32 34  1  0  0  0  0
 34 36  1  0  0  0  0
 35 34  2  0  0  0  0
 36 37  1  0  0  0  0
 37 38  1  6  0  0  0
 37 46  1  0  0  0  0
 39 38  1  0  0  0  0
 39 40  1  0  0  0  0
 41 40  2  0  0  0  0
 42 41  1  0  0  0  0
 43 45  1  0  0  0  0
 43 42  2  0  0  0  0
 44 42  1  0  0  0  0
 45 39  2  0  0  0  0
 46 47  2  0  0  0  0
 46 48  1  0  0  0  0
M  END
>  <minimizedAffinity>
-7.89362478

>  <minimizedRMSD>
2.32881498

$$$$
