
 OpenBabel04082419553D

 27 28  0  0  1  0  0  0  0  0999 V2000
   -7.5460   11.8750    4.5870 C   0  0  0  0  0  0  0  0  0  0  0  0
   -7.7100   13.1780    4.1900 C   0  0  0  0  0  3  0  0  0  0  0  0
   -7.9280   13.5250    2.8890 C   0  0  0  0  0  3  0  0  0  0  0  0
   -7.9880   12.5450    1.9320 C   0  0  0  0  0  0  0  0  0  0  0  0
   -8.2880   12.9360    0.1020 Br  0  0  0  0  0  0  0  0  0  0  0  0
   -7.8260   11.2110    2.3020 C   0  0  0  0  0  3  0  0  0  0  0  0
   -7.6090   10.8580    3.6070 C   0  0  0  0  0  0  0  0  0  0  0  0
   -7.3870    9.5100    4.0350 C   0  0  1  0  0  3  0  0  0  0  0  0
   -6.1240    9.2090    4.3360 O   0  0  0  0  0  0  0  0  0  0  0  0
   -5.9780    8.3140    4.6210 H   0  0  0  0  0  0  0  0  0  0  0  0
   -8.2170    8.4170    4.2120 N   0  0  0  0  0  0  0  0  0  0  0  0
   -7.6530    7.1200    4.6750 C   0  0  0  0  0  2  0  0  0  0  0  0
   -8.6570    6.0250    4.4610 C   0  0  2  0  0  3  0  0  0  0  0  0
   -7.8500    4.7220    4.3710 C   0  0  0  0  0  1  0  0  0  0  0  0
   -9.4870    6.1140    3.2420 C   0  0  0  0  0  2  0  0  0  0  0  0
   -9.9810    7.4940    2.8730 C   0  0  1  0  0  3  0  0  0  0  0  0
   -9.6280    8.3890    4.0420 C   0  0  0  0  0  2  0  0  0  0  0  0
   -9.3710    7.8960    1.5730 C   0  0  0  0  0  1  0  0  0  0  0  0
   -7.3230   11.5570    5.9570 N   0  0  0  0  0  0  0  0  0  0  0  0
   -5.9870   11.3730    6.4250 C   0  0  0  0  0  0  0  0  0  0  0  0
   -5.0820   12.0540    5.8910 O   0  0  0  0  0  0  0  0  0  0  0  0
   -8.1110   11.4620    6.5980 H   0  0  0  0  0  0  0  0  0  0  0  0
   -5.6560   10.4170    7.4990 C   0  0  0  0  0  2  0  0  0  0  0  0
   -4.8300   11.0060    8.6030 C   0  0  0  0  0  2  0  0  0  0  0  0
   -3.4370   10.5610    8.5920 C   0  0  0  0  0  0  0  0  0  0  0  0
   -2.7570   10.5180    7.5580 O   0  0  0  0  0  0  0  0  0  0  0  0
   -2.8270   10.1590    9.8000 O   0  0  0  0  0  1  0  0  0  0  0  0
  1 19  1  0  0  0  0
  2  1  1  0  0  0  0
  3  2  2  0  0  0  0
  4  6  2  0  0  0  0
  4  3  1  0  0  0  0
  5  4  1  0  0  0  0
  6  7  1  0  0  0  0
  7  8  1  0  0  0  0
  7  1  2  0  0  0  0
  8 11  1  0  0  0  0
  8  9  1  1  0  0  0
  9 10  1  0  0  0  0
 11 12  1  0  0  0  0
 13 14  1  6  0  0  0
 13 12  1  0  0  0  0
 15 13  1  0  0  0  0
 16 18  1  6  0  0  0
 16 15  1  0  0  0  0
 16 17  1  0  0  0  0
 17 11  1  0  0  0  0
 19 20  1  0  0  0  0
 19 22  1  0  0  0  0
 20 23  1  0  0  0  0
 21 20  2  0  0  0  0
 23 24  1  0  0  0  0
 25 24  1  0  0  0  0
 25 27  1  0  0  0  0
 26 25  2  0  0  0  0
M  END
>  <minimizedAffinity>
-5.44375038

>  <minimizedRMSD>
0.907383382

$$$$
