
 OpenBabel04082420133D

 40 42  0  0  1  0  0  0  0  0999 V2000
   13.3130   10.2880    1.6490 C   0  0  2  0  0  3  0  0  0  0  0  0
   13.8640    8.8690    1.7650 C   0  0  2  0  0  3  0  0  0  0  0  0
   14.4720    8.6500    0.3880 C   0  0  2  0  0  3  0  0  0  0  0  0
   13.7630    9.7160   -0.4220 C   0  0  1  0  0  3  0  0  0  0  0  0
   13.8000   10.8000    0.4720 O   0  0  0  0  0  0  0  0  0  0  0  0
   13.8360   11.0390    2.8650 C   0  0  0  0  0  2  0  0  0  0  0  0
   14.9080   11.8580    2.5260 O   0  0  0  0  0  0  0  0  0  0  0  0
   16.1490   11.7850    3.6190 S   0  0  0  0  0  0  0  0  0  0  0  0
   17.2170   10.8940    3.0490 O   0  0  0  0  0  1  0  0  0  0  0  0
   16.7870   13.1340    3.8300 O   0  0  0  0  0  1  0  0  0  0  0  0
   15.6420   11.2240    5.1820 N   0  0  0  0  0  0  0  0  0  0  0  0
   15.8380    9.8900    5.6140 C   0  0  0  0  0  0  0  0  0  0  0  0
   16.0170    9.0520    4.6640 O   0  0  0  0  0  0  0  0  0  0  0  0
   15.1860   11.8810    5.8140 H   0  0  0  0  0  0  0  0  0  0  0  0
   15.8490    9.4290    6.9950 C   0  0  1  0  0  3  0  0  0  0  0  0
   14.5230    9.2190    7.6400 C   0  0  0  0  0  0  0  0  0  0  0  0
   14.5530    8.4500    8.9270 C   0  0  0  0  0  1  0  0  0  0  0  0
   13.7830   10.5370    7.7990 C   0  0  0  0  0  1  0  0  0  0  0  0
   13.6800    8.3920    6.6590 C   0  0  0  0  0  1  0  0  0  0  0  0
   16.5330    8.1000    7.0280 N   0  0  0  0  0  4  0  0  0  0  0  0
   16.1150    7.4250    6.3880 H   0  0  0  0  0  0  0  0  0  0  0  0
   17.4630    8.1240    6.6100 H   0  0  0  0  0  0  0  0  0  0  0  0
   16.5410    7.7770    7.9940 H   0  0  0  0  0  0  0  0  0  0  0  0
   12.8060    8.0270    2.0240 O   0  0  0  0  0  0  0  0  0  0  0  0
   13.1490    7.1440    2.0960 H   0  0  0  0  0  0  0  0  0  0  0  0
   14.2320    7.3770   -0.0880 O   0  0  0  0  0  0  0  0  0  0  0  0
   14.6110    7.2400   -0.9490 H   0  0  0  0  0  0  0  0  0  0  0  0
   14.4340   10.0140   -1.6450 N   0  0  2  0  0  0  0  0  0  0  0  0
   13.9450    9.9010   -2.8830 C   0  0  2  0  0  3  0  0  0  0  0  0
   14.9250   10.2920   -3.7730 C   0  0  0  0  0  0  0  0  0  0  0  0
   12.7660    9.5090   -3.3860 N   0  0  0  0  0  0  0  0  0  0  0  0
   14.6800   10.2720   -5.1430 C   0  0  0  0  0  0  0  0  0  0  0  0
   15.9980   10.6370   -3.0480 N   0  0  0  0  0  0  0  0  0  0  0  0
   13.4770    9.8670   -5.5790 N   0  0  0  0  0  0  0  0  0  0  0  0
   15.7100   10.6800   -6.0270 N   0  0  0  0  0  1  0  0  0  0  0  0
   12.5220    9.4870   -4.7180 C   0  0  0  0  0  2  0  0  0  0  0  0
   13.2850    9.8480   -6.5810 H   0  0  0  0  0  0  0  0  0  0  0  0
   15.6950   10.4650   -1.7420 C   0  0  0  0  0  2  0  0  0  0  0  0
   16.8890   10.9700   -3.4170 H   0  0  0  0  0  0  0  0  0  0  0  0
   12.0300    9.2160   -2.7450 H   0  0  0  0  0  0  0  0  0  0  0  0
  1  2  1  0  0  0  0
  1  6  1  1  0  0  0
  2 24  1  6  0  0  0
  3 26  1  6  0  0  0
  3  2  1  0  0  0  0
  4  3  1  0  0  0  0
  4  5  1  1  0  0  0
  5  1  1  0  0  0  0
  7  6  1  0  0  0  0
  7  8  1  0  0  0  0
  8 10  1  0  0  0  0
  8 11  1  0  0  0  0
  9  8  1  0  0  0  0
 11 12  1  0  0  0  0
 11 14  1  0  0  0  0
 13 12  2  0  0  0  0
 15 12  1  6  0  0  0
 15 20  1  0  0  0  0
 15 16  1  0  0  0  0
 16 18  1  0  0  0  0
 16 17  1  0  0  0  0
 19 16  1  0  0  0  0
 20 23  1  0  0  0  0
 21 20  1  0  0  0  0
 22 20  1  0  0  0  0
 24 25  1  0  0  0  0
 27 26  1  0  0  0  0
 28 38  1  6  0  0  0
 28  4  1  0  0  0  0
 29 30  1  1  0  0  0
 29 28  1  0  0  0  0
 30 33  1  0  0  0  0
 31 29  1  0  0  0  0
 31 40  1  0  0  0  0
 32 30  2  0  0  0  0
 33 38  1  0  0  0  0
 34 32  1  0  0  0  0
 34 36  1  0  0  0  0
 35 32  1  0  0  0  0
 36 31  1  0  0  0  0
 37 34  1  0  0  0  0
 39 33  1  0  0  0  0
M  END
>  <minimizedAffinity>
-10.3971548

>  <minimizedRMSD>
0.422521591

$$$$
