
 OpenBabel04082420013D

 19 20  0  0  1  0  0  0  0  0999 V2000
   30.1820   65.1800    9.5840 C   0  0  2  0  0  3  0  0  0  0  0  0
   31.4560   65.9300    9.6780 C   0  0  1  0  0  3  0  0  0  0  0  0
   29.2480   65.5900    8.7050 N   0  0  0  0  0  0  0  0  0  0  0  0
   31.9830   66.3970    8.3570 C   0  0  2  0  0  3  0  0  0  0  0  0
   30.9240   66.4940    7.2840 C   0  0  1  0  0  3  0  0  0  0  0  0
   29.5390   66.7510    7.8880 C   0  0  1  0  0  3  0  0  0  0  0  0
   28.4840   63.7890    9.7920 C   0  0  0  0  0  3  0  0  0  0  0  0
   28.2170   64.7400    8.8350 C   0  0  0  0  0  3  0  0  0  0  0  0
   29.7150   64.0830   10.2470 N   0  0  0  0  0  0  0  0  0  0  0  0
   30.2180   63.5680   10.9700 H   0  0  0  0  0  0  0  0  0  0  0  0
   28.5610   66.8690    6.7530 C   0  0  0  0  0  2  0  0  0  0  0  0
   27.3140   66.4300    7.1530 O   0  0  0  0  0  0  0  0  0  0  0  0
   26.6970   66.5030    6.4350 H   0  0  0  0  0  0  0  0  0  0  0  0
   31.2370   67.3990    6.2970 O   0  0  0  0  0  0  0  0  0  0  0  0
   30.5710   67.4600    5.6220 H   0  0  0  0  0  0  0  0  0  0  0  0
   32.9560   65.4990    7.8820 O   0  0  0  0  0  0  0  0  0  0  0  0
   33.2900   65.7960    7.0440 H   0  0  0  0  0  0  0  0  0  0  0  0
   31.3420   67.0290   10.5450 O   0  0  0  0  0  0  0  0  0  0  0  0
   32.1580   67.5100   10.6050 H   0  0  0  0  0  0  0  0  0  0  0  0
  1  3  1  1  0  0  0
  1  2  1  0  0  0  0
  1  9  1  0  0  0  0
  2 18  1  1  0  0  0
  3  8  1  0  0  0  0
  4 16  1  6  0  0  0
  4  2  1  0  0  0  0
  5 14  1  6  0  0  0
  5  6  1  0  0  0  0
  5  4  1  0  0  0  0
  6 11  1  6  0  0  0
  6  3  1  0  0  0  0
  7  9  1  0  0  0  0
  8  7  2  0  0  0  0
  9 10  1  0  0  0  0
 11 12  1  0  0  0  0
 13 12  1  0  0  0  0
 15 14  1  0  0  0  0
 17 16  1  0  0  0  0
 18 19  1  0  0  0  0
M  END
>  <minimizedAffinity>
-4.96074104

>  <minimizedRMSD>
0.983878434

$$$$
