
 OpenBabel04082420023D

 25 27  0  0  1  0  0  0  0  0999 V2000
   38.2740   -0.0280   14.3970 C   0  0  2  0  0  3  0  0  0  0  0  0
   38.2890   -0.8900   13.3390 O   0  0  0  0  0  0  0  0  0  0  0  0
   37.5070    1.2070   13.9970 C   0  0  1  0  0  3  0  0  0  0  0  0
   36.4980    0.6000   13.0310 C   0  0  2  0  0  3  0  0  0  0  0  0
   37.1850   -0.6270   12.5450 C   0  0  2  0  0  3  0  0  0  0  0  0
   36.3210   -1.7660   12.3750 N   0  0  0  0  0  0  0  0  0  0  0  0
   36.1980   -2.6680   13.3550 C   0  0  0  0  0  3  0  0  0  0  0  0
   35.3730   -3.7900   13.2380 C   0  0  0  0  0  3  0  0  0  0  0  0
   34.6710   -3.9580   12.0710 C   0  0  0  0  0  0  0  0  0  0  0  0
   34.8030   -3.0520   11.1040 N   0  0  0  0  0  0  0  0  0  0  0  0
   33.9220   -4.9790   11.9700 O   0  0  0  0  0  0  0  0  0  0  0  0
   35.6060   -1.9810   11.2450 C   0  0  0  0  0  0  0  0  0  0  0  0
   34.2820   -3.1730   10.2350 H   0  0  0  0  0  0  0  0  0  0  0  0
   35.7230   -1.1340   10.3300 O   0  0  0  0  0  0  0  0  0  0  0  0
   36.2060    1.4810   11.9940 O   0  0  0  0  0  0  0  0  0  0  0  0
   35.5760    1.1020   11.3920 H   0  0  0  0  0  0  0  0  0  0  0  0
   39.5430    0.2040   15.1100 C   0  0  0  0  0  2  0  0  0  0  0  0
   40.5140   -0.8040   15.1950 N   0  0  0  0  0  0  0  0  0  0  0  0
   40.2670   -2.0690   14.5980 C   0  0  0  0  0  2  0  0  0  0  0  0
   40.9110   -3.2070   15.4060 C   0  0  0  0  0  2  0  0  0  0  0  0
   42.3230   -2.8480   15.8130 C   0  0  0  0  0  2  0  0  0  0  0  0
   42.3710   -1.5160   16.5330 C   0  0  0  0  0  2  0  0  0  0  0  0
   40.9570   -0.9820   16.5930 C   0  0  0  0  0  2  0  0  0  0  0  0
   36.8210    1.7530   15.1040 O   0  0  0  0  0  0  0  0  0  0  0  0
   36.3390    2.5300   14.8520 H   0  0  0  0  0  0  0  0  0  0  0  0
  1 17  1  6  0  0  0
  2  1  1  0  0  0  0
  3  1  1  0  0  0  0
  3 24  1  1  0  0  0
  4 15  1  6  0  0  0
  4  3  1  0  0  0  0
  5  6  1  1  0  0  0
  5  4  1  0  0  0  0
  5  2  1  0  0  0  0
  6  7  1  0  0  0  0
  8  7  2  0  0  0  0
  9  8  1  0  0  0  0
 10 12  1  0  0  0  0
 10  9  1  0  0  0  0
 11  9  2  0  0  0  0
 12  6  1  0  0  0  0
 13 10  1  0  0  0  0
 14 12  2  0  0  0  0
 16 15  1  0  0  0  0
 17 18  1  0  0  0  0
 18 23  1  0  0  0  0
 19 18  1  0  0  0  0
 19 20  1  0  0  0  0
 20 21  1  0  0  0  0
 21 22  1  0  0  0  0
 22 23  1  0  0  0  0
 25 24  1  0  0  0  0
M  END
>  <minimizedAffinity>
-4.70746803

>  <minimizedRMSD>
0.768423915

$$$$
