
 OpenBabel04082420163D

 15 15  0  0  1  0  0  0  0  0999 V2000
   32.1640   66.7020    8.0980 C   0  0  2  0  0  3  0  0  0  0  0  0
   31.9130   66.1580    9.5100 C   0  0  1  0  0  3  0  0  0  0  0  0
   30.5750   66.7950    9.8030 C   0  0  1  0  0  3  0  0  0  0  0  0
   29.8280   66.5850    8.5230 C   0  0  0  0  0  2  0  0  0  0  0  0
   30.8560   66.3860    7.4280 C   0  0  2  0  0  3  0  0  0  0  0  0
   29.9150   66.1290   10.9410 N   0  0  0  0  0  4  0  0  0  0  0  0
   29.8290   65.1240   10.7900 H   0  0  0  0  0  0  0  0  0  0  0  0
   30.5130   66.1120   11.7660 H   0  0  0  0  0  0  0  0  0  0  0  0
   29.0120   66.5590   11.1380 H   0  0  0  0  0  0  0  0  0  0  0  0
   31.8620   64.7740    9.5090 O   0  0  0  0  0  0  0  0  0  0  0  0
   31.7070   64.4370   10.3840 H   0  0  0  0  0  0  0  0  0  0  0  0
   33.2570   66.1360    7.5030 O   0  0  0  0  0  0  0  0  0  0  0  0
   33.4120   66.4750    6.6290 H   0  0  0  0  0  0  0  0  0  0  0  0
   30.8160   65.1060    6.8880 O   0  0  0  0  0  0  0  0  0  0  0  0
   29.9890   64.9060    6.4640 H   0  0  0  0  0  0  0  0  0  0  0  0
  1 12  1  6  0  0  0
  1  2  1  0  0  0  0
  2 10  1  6  0  0  0
  2  3  1  0  0  0  0
  3  6  1  1  0  0  0
  4  3  1  0  0  0  0
  5 14  1  1  0  0  0
  5  1  1  0  0  0  0
  5  4  1  0  0  0  0
  6  9  1  0  0  0  0
  6  8  1  0  0  0  0
  7  6  1  0  0  0  0
 10 11  1  0  0  0  0
 13 12  1  0  0  0  0
 15 14  1  0  0  0  0
M  END
>  <minimizedAffinity>
-4.14135742

>  <minimizedRMSD>
1.10052729

$$$$
