
 OpenBabel04082420083D

 18 18  0  0  1  0  0  0  0  0999 V2000
   30.1990   65.7060    8.0760 C   0  0  2  0  0  3  0  0  0  0  0  0
   29.3130   66.1340    9.1850 C   0  0  2  0  0  3  0  0  0  0  0  0
   30.2580   65.9320   10.3790 C   0  0  2  0  0  3  0  0  0  0  0  0
   31.4660   66.6960    9.8950 C   0  0  2  0  0  3  0  0  0  0  0  0
   31.5280   66.3480    8.4240 C   0  0  1  0  0  3  0  0  0  0  0  0
   28.1990   65.2020    9.4220 N   0  0  0  0  0  4  0  0  0  0  0  0
   27.6640   65.0470    8.5660 H   0  0  0  0  0  0  0  0  0  0  0  0
   28.5430   64.2530    9.5750 H   0  0  0  0  0  0  0  0  0  0  0  0
   27.5890   65.4960   10.1850 H   0  0  0  0  0  0  0  0  0  0  0  0
   29.6930   66.3960    6.4660 S   0  0  2  0  0  0  0  0  0  0  0  0
   28.7320   67.5400    6.8630 O   0  0  0  0  0  0  0  0  0  0  0  0
   28.5680   65.1070    5.8290 C   0  0  0  0  0  1  0  0  0  0  0  0
   30.5000   64.5540   10.4300 O   0  0  0  0  0  0  0  0  0  0  0  0
   31.0850   64.4300   11.1680 H   0  0  0  0  0  0  0  0  0  0  0  0
   32.5960   65.4790    8.1750 O   0  0  0  0  0  0  0  0  0  0  0  0
   33.4290   65.8810    8.3930 H   0  0  0  0  0  0  0  0  0  0  0  0
   32.6290   66.3340   10.5660 O   0  0  0  0  0  0  0  0  0  0  0  0
   33.3900   66.8160   10.2620 H   0  0  0  0  0  0  0  0  0  0  0  0
  1 10  1  6  0  0  0
  1  5  1  0  0  0  0
  1  2  1  0  0  0  0
  2  6  1  1  0  0  0
  2  3  1  0  0  0  0
  3 13  1  6  0  0  0
  4  3  1  0  0  0  0
  4 17  1  1  0  0  0
  5 15  1  1  0  0  0
  5  4  1  0  0  0  0
  6  8  1  0  0  0  0
  6  9  1  0  0  0  0
  7  6  1  0  0  0  0
 10 12  1  6  0  0  0
 10 11  2  0  0  0  0
 13 14  1  0  0  0  0
 15 16  1  0  0  0  0
 18 17  1  0  0  0  0
M  END
>  <minimizedAffinity>
-3.76855683

>  <minimizedRMSD>
2.10272717

$$$$
