
 OpenBabel04082419573D

 24 25  0  0  1  0  0  0  0  0999 V2000
   36.7690    0.0270   11.8750 C   0  0  1  0  0  3  0  0  0  0  0  0
   36.6190    0.6530   13.2360 C   0  0  1  0  0  3  0  0  0  0  0  0
   37.8050    1.6190   13.2680 C   0  0  1  0  0  3  0  0  0  0  0  0
   38.5560    1.3040   11.9950 C   0  0  2  0  0  3  0  0  0  0  0  0
   38.1690    0.0050   11.7050 O   0  0  0  0  0  0  0  0  0  0  0  0
   36.2700   -1.3230   11.8540 N   0  0  0  0  0  0  0  0  0  0  0  0
   35.1010   -1.6180   11.2650 C   0  0  0  0  0  0  0  0  0  0  0  0
   34.6230   -2.8610   11.2340 N   0  0  0  0  0  0  0  0  0  0  0  0
   34.4290   -0.6930   10.7210 O   0  0  0  0  0  0  0  0  0  0  0  0
   35.2790   -3.8870   11.7880 C   0  0  0  0  0  0  0  0  0  0  0  0
   33.7300   -3.0360   10.7750 H   0  0  0  0  0  0  0  0  0  0  0  0
   36.4810   -3.6490   12.4070 C   0  0  0  0  0  3  0  0  0  0  0  0
   34.8150   -5.0560   11.7520 O   0  0  0  0  0  0  0  0  0  0  0  0
   36.9460   -2.3450   12.4170 C   0  0  0  0  0  3  0  0  0  0  0  0
   35.4650    1.4300   13.3210 O   0  0  0  0  0  0  0  0  0  0  0  0
   35.3710    1.8250   14.1800 H   0  0  0  0  0  0  0  0  0  0  0  0
   37.3830    2.9450   13.2310 O   0  0  0  0  0  0  0  0  0  0  0  0
   38.1190    3.5450   13.2510 H   0  0  0  0  0  0  0  0  0  0  0  0
   40.0560    1.3630   12.2090 C   0  0  0  0  0  2  0  0  0  0  0  0
   40.4570    0.4560   13.1730 O   0  0  0  0  0  0  0  0  0  0  0  0
   41.4010    1.2280   14.3210 P   0  0  0  0  0  0  0  0  0  0  0  0
   42.3120    2.4170   13.5370 O   0  0  0  0  0  0  0  0  0  0  0  0
   42.3680    0.1650   15.1920 O   0  0  0  0  0  1  0  0  0  0  0  0
   40.5140    1.9500   15.3230 O   0  0  0  0  0  1  0  0  0  0  0  0
  1  6  1  1  0  0  0
  1  2  1  0  0  0  0
  2  3  1  0  0  0  0
  2 15  1  6  0  0  0
  3 17  1  6  0  0  0
  4 19  1  1  0  0  0
  4  3  1  0  0  0  0
  5  1  1  0  0  0  0
  5  4  1  0  0  0  0
  6 14  1  0  0  0  0
  7  6  1  0  0  0  0
  8  7  1  0  0  0  0
  8 10  1  0  0  0  0
  9  7  2  0  0  0  0
 10 12  1  0  0  0  0
 11  8  1  0  0  0  0
 12 14  2  0  0  0  0
 13 10  2  0  0  0  0
 15 16  1  0  0  0  0
 17 18  1  0  0  0  0
 19 20  1  0  0  0  0
 20 21  1  0  0  0  0
 21 23  1  0  0  0  0
 21 24  1  0  0  0  0
 22 21  2  0  0  0  0
M  END
>  <minimizedAffinity>
-4.26324511

>  <minimizedRMSD>
1.11326313

$$$$
