
 OpenBabel04082419583D

 39 43  0  0  1  0  0  0  0  0999 V2000
   24.0130   29.2750   20.2940 C   0  0  1  0  0  3  0  0  0  0  0  0
   23.8380   29.4380   18.9570 C   0  0  0  0  0  3  0  0  0  0  0  0
   24.8030   28.9770   18.0930 C   0  0  0  0  0  0  0  0  0  0  0  0
   25.8770   28.3830   18.6070 N   0  0  0  0  0  0  0  0  0  0  0  0
   26.5960   28.0390   17.9700 H   0  0  0  0  0  0  0  0  0  0  0  0
   26.0610   28.2160   19.9380 C   0  0  1  0  0  3  0  0  0  0  0  0
   25.1200   28.6670   20.7510 N   0  0  0  0  0  0  0  0  0  0  0  0
   25.2390   28.5500   21.7580 H   0  0  0  0  0  0  0  0  0  0  0  0
   27.5480   27.4020   20.4820 S   0  0  0  0  0  0  0  0  0  0  0  0
   28.0470   26.2330   19.2320 C   0  0  0  0  0  0  0  0  0  0  0  0
   27.2730   25.1300   18.9120 C   0  0  0  0  0  3  0  0  0  0  0  0
   27.6450   24.2160   17.9380 C   0  0  0  0  0  3  0  0  0  0  0  0
   28.8060   24.4080   17.2780 C   0  0  0  0  0  0  0  0  0  0  0  0
   29.5930   25.5190   17.5960 C   0  0  0  0  0  3  0  0  0  0  0  0
   29.2320   26.4270   18.5550 C   0  0  0  0  0  3  0  0  0  0  0  0
   29.2940   23.5540   16.2710 N   0  0  0  0  0  0  0  0  0  0  0  0
   30.5140   23.7160   15.5720 C   0  0  0  0  0  0  0  0  0  0  0  0
   31.1290   24.7980   15.5760 O   0  0  0  0  0  0  0  0  0  0  0  0
   28.7180   22.7490   16.0220 H   0  0  0  0  0  0  0  0  0  0  0  0
   31.0420   22.5250   14.8220 C   0  0  0  0  0  3  0  0  0  0  0  0
   32.2010   22.7290   13.9270 C   0  0  0  0  0  2  0  0  0  0  0  0
   32.4320   22.0330   15.2150 C   0  0  0  0  0  2  0  0  0  0  0  0
   24.6730   29.1180   16.6890 N   0  0  0  0  0  0  0  0  0  0  0  0
   23.8980   29.6610   16.3100 H   0  0  0  0  0  0  0  0  0  0  0  0
   25.5990   28.5200   15.8020 C   0  0  1  0  0  3  0  0  0  0  0  0
   26.8530   28.0370   16.0720 C   0  0  0  0  0  3  0  0  0  0  0  0
   27.3680   27.5530   14.9030 C   0  0  0  0  0  0  0  0  0  0  0  0
   26.4370   27.7430   13.9500 N   0  0  0  0  0  0  0  0  0  0  0  0
   28.7040   26.9330   14.7180 C   0  0  0  0  0  1  0  0  0  0  0  0
   25.3920   28.3160   14.4930 N   0  0  0  0  0  0  0  0  0  0  0  0
   26.5290   27.4820   12.9680 H   0  0  0  0  0  0  0  0  0  0  0  0
   24.5420   28.5720   13.9910 H   0  0  0  0  0  0  0  0  0  0  0  0
   23.0770   29.7180   21.2670 N   0  0  0  0  0  0  0  0  0  0  0  0
   22.6710   31.0940   21.4000 C   0  0  0  0  0  2  0  0  0  0  0  0
   21.1920   31.2770   21.6040 C   0  0  0  0  0  2  0  0  0  0  0  0
   20.6200   30.2370   22.4380 N   0  0  0  0  0  0  0  0  0  0  0  0
   21.6250   29.4900   23.1490 C   0  0  0  0  0  2  0  0  0  0  0  0
   19.9100   29.3350   21.5600 C   0  0  0  0  0  1  0  0  0  0  0  0
   22.4990   28.7460   22.1670 C   0  0  0  0  0  2  0  0  0  0  0  0
  1  2  1  1  0  0  0
  1  7  1  0  0  0  0
  1 33  1  0  0  0  0
  3  4  1  0  0  0  0
  3  2  2  0  0  0  0
  4  6  1  0  0  0  0
  5  4  1  0  0  0  0
  6  9  1  6  0  0  0
  6  7  1  0  0  0  0
  7  8  1  0  0  0  0
 10  9  1  0  0  0  0
 11 10  1  0  0  0  0
 12 11  2  0  0  0  0
 13 14  2  0  0  0  0
 13 12  1  0  0  0  0
 14 15  1  0  0  0  0
 15 10  2  0  0  0  0
 16 13  1  0  0  0  0
 17 18  2  0  0  0  0
 17 16  1  0  0  0  0
 19 16  1  0  0  0  0
 20 22  1  0  0  0  0
 20 17  1  0  0  0  0
 21 20  1  0  0  0  0
 21 22  1  0  0  0  0
 23  3  1  0  0  0  0
 24 23  1  0  0  0  0
 25 26  1  0  0  0  0
 25 23  1  1  0  0  0
 27 26  2  0  0  0  0
 28 30  1  0  0  0  0
 28 27  1  0  0  0  0
 29 27  1  0  0  0  0
 30 25  1  0  0  0  0
 31 28  1  0  0  0  0
 32 30  1  0  0  0  0
 33 34  1  0  0  0  0
 33 39  1  0  0  0  0
 34 35  1  0  0  0  0
 35 36  1  0  0  0  0
 36 37  1  0  0  0  0
 38 36  1  0  0  0  0
 39 37  1  0  0  0  0
M  END
>  <minimizedAffinity>
-10.7162409

>  <minimizedRMSD>
0.919500768

$$$$
