
 OpenBabel04082420073D

 29 32  0  0  1  0  0  0  0  0999 V2000
   44.4960   33.1020   31.8160 C   0  0  0  0  0  0  0  0  0  0  0  0
   43.4560   33.5690   32.5860 C   0  0  0  0  0  3  0  0  0  0  0  0
   42.2710   32.8510   32.7300 C   0  0  0  0  0  3  0  0  0  0  0  0
   44.3630   31.9030   31.1770 C   0  0  0  0  0  3  0  0  0  0  0  0
   43.1980   31.1370   31.2820 C   0  0  0  0  0  0  0  0  0  0  0  0
   43.0480   29.8320   30.5890 C   0  0  0  0  0  1  0  0  0  0  0  0
   42.1780   31.6390   32.0630 C   0  0  0  0  0  0  0  0  0  0  0  0
   40.9550   30.8600   32.1890 C   0  0  0  0  0  0  0  0  0  0  0  0
   40.7320   29.9870   33.2610 C   0  0  0  0  0  3  0  0  0  0  0  0
   39.5770   29.2540   33.3780 C   0  0  0  0  0  0  0  0  0  0  0  0
   38.6310   29.4180   32.3790 C   0  0  0  0  0  3  0  0  0  0  0  0
   38.8040   30.2640   31.3050 C   0  0  0  0  0  3  0  0  0  0  0  0
   39.9820   30.9880   31.2210 C   0  0  0  0  0  0  0  0  0  0  0  0
   40.2340   31.9200   30.0900 C   0  0  0  0  0  1  0  0  0  0  0  0
   39.3430   28.3450   34.4900 C   0  0  0  0  0  0  0  0  0  0  0  0
   40.1590   28.4090   35.4790 O   0  0  0  0  0  0  0  0  0  0  0  0
   38.2780   27.4080   34.5370 N   0  0  0  0  0  0  0  0  0  0  0  0
   37.6380   27.3140   33.7490 H   0  0  0  0  0  0  0  0  0  0  0  0
   38.1140   26.6010   35.7030 C   0  0  0  0  0  3  0  0  0  0  0  0
   36.8060   26.0200   36.0820 C   0  0  0  0  0  2  0  0  0  0  0  0
   37.2040   27.2540   36.7600 C   0  0  0  0  0  2  0  0  0  0  0  0
   45.7380   33.8860   31.6850 C   0  0  1  0  0  3  0  0  0  0  0  0
   46.7540   33.6240   30.9120 O   0  0  0  0  0  0  0  0  0  0  0  0
   47.6920   34.5320   31.0460 C   0  0  1  0  0  3  0  0  0  0  0  0
   49.0110   34.6390   30.3730 C   0  0  0  0  0  1  0  0  0  0  0  0
   47.2380   35.4050   31.9470 N   0  0  0  0  0  0  0  0  0  0  0  0
   46.0330   35.0160   32.3470 N   0  0  0  0  0  0  0  0  0  0  0  0
   47.7340   36.2350   32.2730 H   0  0  0  0  0  0  0  0  0  0  0  0
   45.4420   35.4870   33.0320 H   0  0  0  0  0  0  0  0  0  0  0  0
  1  2  1  0  0  0  0
  2  3  2  0  0  0  0
  4  5  1  0  0  0  0
  4  1  2  0  0  0  0
  5  7  2  0  0  0  0
  6  5  1  0  0  0  0
  7  8  1  0  0  0  0
  7  3  1  0  0  0  0
  8  9  1  0  0  0  0
  9 10  2  0  0  0  0
 10 15  1  0  0  0  0
 11 10  1  0  0  0  0
 12 11  2  0  0  0  0
 13 12  1  0  0  0  0
 13  8  2  0  0  0  0
 14 13  1  0  0  0  0
 15 17  1  0  0  0  0
 15 16  2  0  0  0  0
 17 19  1  0  0  0  0
 18 17  1  0  0  0  0
 19 20  1  0  0  0  0
 19 21  1  0  0  0  0
 20 21  1  0  0  0  0
 22  1  1  6  0  0  0
 22 27  1  0  0  0  0
 23 24  1  0  0  0  0
 23 22  1  0  0  0  0
 24 25  1  6  0  0  0
 24 26  1  0  0  0  0
 26 28  1  0  0  0  0
 26 27  1  0  0  0  0
 27 29  1  0  0  0  0
M  END
>  <minimizedAffinity>
-10.4813166

>  <minimizedRMSD>
0.341098607

$$$$
