
 OpenBabel04082419563D

 41 46  0  0  0  0  0  0  0  0999 V2000
   39.5280   30.2490   34.3890 C   0  0  0  0  0  0  0  0  0  0  0  0
   38.3350   30.3680   33.7230 C   0  0  0  0  0  3  0  0  0  0  0  0
   38.2920   31.2140   32.6000 C   0  0  0  0  0  3  0  0  0  0  0  0
   39.4090   31.9040   32.1740 C   0  0  0  0  0  0  0  0  0  0  0  0
   39.3140   32.7890   30.9870 C   0  0  0  0  0  1  0  0  0  0  0  0
   40.6000   31.7750   32.8530 C   0  0  0  0  0  0  0  0  0  0  0  0
   40.6450   30.9380   33.9660 C   0  0  0  0  0  3  0  0  0  0  0  0
   41.8360   32.4600   32.4780 C   0  0  0  0  0  0  0  0  0  0  0  0
   42.8880   31.7860   31.8820 C   0  0  0  0  0  3  0  0  0  0  0  0
   44.0640   32.4080   31.5170 C   0  0  0  0  0  2  0  0  0  0  0  0
   44.2290   33.7460   31.7390 C   0  0  0  0  0  0  0  0  0  0  0  0
   43.1900   34.4320   32.3320 C   0  0  0  0  0  0  0  0  0  0  0  0
   45.2800   34.6250   31.4850 C   0  0  0  0  0  0  0  0  0  0  0  0
   43.6270   35.6850   32.4210 O   0  0  0  0  0  0  0  0  0  0  0  0
   42.0090   33.8160   32.7000 C   0  0  0  0  0  3  0  0  0  0  0  0
   44.8200   35.8050   31.9390 N   0  0  0  0  0  0  0  0  0  0  0  0
   45.3450   36.6800   31.9070 H   0  0  0  0  0  0  0  0  0  0  0  0
   46.5860   34.3070   30.8560 C   0  0  0  0  0  3  0  0  0  0  0  0
   47.4490   35.5250   30.6500 C   0  0  0  0  0  2  0  0  0  0  0  0
   48.8530   35.0030   30.3330 C   0  0  0  0  0  2  0  0  0  0  0  0
   48.7710   33.7450   29.6170 N   0  0  0  0  0  4  0  0  0  0  0  0
   47.6190   33.7540   28.7090 C   0  0  0  0  0  2  0  0  0  0  0  0
   49.6400   33.5270   29.1280 H   0  0  0  0  0  0  0  0  0  0  0  0
   48.7510   32.9450   30.2500 H   0  0  0  0  0  0  0  0  0  0  0  0
   46.3170   33.6710   29.4840 C   0  0  0  0  0  2  0  0  0  0  0  0
   39.6120   29.3850   35.5540 C   0  0  0  0  0  0  0  0  0  0  0  0
   40.5570   29.5190   36.4050 O   0  0  0  0  0  0  0  0  0  0  0  0
   38.6960   28.3450   35.8600 N   0  0  0  0  0  0  0  0  0  0  0  0
   37.8520   28.2480   35.2940 H   0  0  0  0  0  0  0  0  0  0  0  0
   38.9140   27.4370   36.9240 C   0  0  0  0  0  0  0  0  0  0  0  0
   39.0440   27.9450   38.2100 C   0  0  0  0  0  3  0  0  0  0  0  0
   39.2600   27.1120   39.2870 C   0  0  0  0  0  0  0  0  0  0  0  0
   39.3510   25.7400   39.0900 C   0  0  0  0  0  3  0  0  0  0  0  0
   39.2270   25.2270   37.8410 C   0  0  0  0  0  3  0  0  0  0  0  0
   39.0090   26.0790   36.7720 C   0  0  0  0  0  3  0  0  0  0  0  0
   39.3840   27.5890   40.6030 N   0  0  0  0  0  0  0  0  0  0  0  0
   39.1980   26.6890   41.7170 C   0  0  0  0  0  2  0  0  0  0  0  0
   39.8490   27.3670   42.9140 C   0  0  0  0  0  2  0  0  0  0  0  0
   39.1240   28.4960   43.1810 O   0  0  0  0  0  0  0  0  0  0  0  0
   39.0520   29.3840   42.1550 C   0  0  0  0  0  2  0  0  0  0  0  0
   39.6850   28.9700   40.8620 C   0  0  0  0  0  2  0  0  0  0  0  0
  1 26  1  0  0  0  0
  2  1  2  0  0  0  0
  3  2  1  0  0  0  0
  4  3  2  0  0  0  0
  4  6  1  0  0  0  0
  5  4  1  0  0  0  0
  6  7  2  0  0  0  0
  7  1  1  0  0  0  0
  8 15  1  0  0  0  0
  8  6  1  0  0  0  0
  9  8  2  0  0  0  0
 10 11  1  0  0  0  0
 10  9  1  0  0  0  0
 11 12  1  0  0  0  0
 12 14  1  0  0  0  0
 12 15  2  0  0  0  0
 13 11  2  0  0  0  0
 13 16  1  0  0  0  0
 16 14  1  0  0  0  0
 17 16  1  0  0  0  0
 18 13  1  0  0  0  0
 19 18  1  0  0  0  0
 20 19  1  0  0  0  0
 21 24  1  0  0  0  0
 21 20  1  0  0  0  0
 22 25  1  0  0  0  0
 22 21  1  0  0  0  0
 23 21  1  0  0  0  0
 25 18  1  0  0  0  0
 26 28  1  0  0  0  0
 26 27  2  0  0  0  0
 28 30  1  0  0  0  0
 29 28  1  0  0  0  0
 30 31  1  0  0  0  0
 31 32  2  0  0  0  0
 32 36  1  0  0  0  0
 33 32  1  0  0  0  0
 34 33  2  0  0  0  0
 35 30  2  0  0  0  0
 35 34  1  0  0  0  0
 36 41  1  0  0  0  0
 36 37  1  0  0  0  0
 37 38  1  0  0  0  0
 38 39  1  0  0  0  0
 40 39  1  0  0  0  0
 41 40  1  0  0  0  0
M  END
>  <minimizedAffinity>
-12.0140352

>  <minimizedRMSD>
0.788301826

$$$$
