
 OpenBabel04082420193D

 31 34  0  0  1  0  0  0  0  0999 V2000
   39.1310   37.4360   30.7670 C   0  0  0  0  0  0  0  0  0  0  0  0
   38.4120   36.2630   30.4680 C   0  0  0  0  0  0  0  0  0  0  0  0
   38.5760   35.6520   29.3490 O   0  0  0  0  0  0  0  0  0  0  0  0
   37.9460   34.5330   28.9610 C   0  0  0  0  0  0  0  0  0  0  0  0
   37.0510   34.0020   29.8480 C   0  0  0  0  0  3  0  0  0  0  0  0
   36.8140   34.6070   31.0890 C   0  0  0  0  0  0  0  0  0  0  0  0
   35.9980   34.1360   31.9070 O   0  0  0  0  0  0  0  0  0  0  0  0
   37.5150   35.7510   31.3790 C   0  0  0  0  0  0  0  0  0  0  0  0
   37.2990   36.3810   32.6150 C   0  0  0  0  0  0  0  0  0  0  0  0
   37.9960   37.5150   32.9010 C   0  0  0  0  0  3  0  0  0  0  0  0
   38.8930   38.0160   31.9740 C   0  0  0  0  0  0  0  0  0  0  0  0
   40.0640   37.9210   29.7650 C   0  0  1  0  0  3  0  0  0  0  0  0
   39.7540   39.3250   29.3050 C   0  0  0  0  0  2  0  0  0  0  0  0
   40.7860   39.9290   28.4190 C   0  0  0  0  0  2  0  0  0  0  0  0
   42.0770   39.3550   28.3910 N   0  0  0  0  0  0  0  0  0  0  0  0
   42.7520   39.5960   27.0980 C   0  0  0  0  0  1  0  0  0  0  0  0
   42.1560   37.9550   28.6290 C   0  0  0  0  0  2  0  0  0  0  0  0
   41.5320   37.7480   30.0300 C   0  0  1  0  0  3  0  0  0  0  0  0
   42.1030   38.7750   30.7760 O   0  0  0  0  0  0  0  0  0  0  0  0
   43.0330   38.6650   30.9440 H   0  0  0  0  0  0  0  0  0  0  0  0
   39.5590   39.1570   32.3260 O   0  0  0  0  0  0  0  0  0  0  0  0
   39.3930   39.5610   33.1690 H   0  0  0  0  0  0  0  0  0  0  0  0
   38.2510   33.9720   27.6680 C   0  0  0  0  0  0  0  0  0  0  0  0
   38.7430   34.6040   26.5840 C   0  0  0  0  0  0  0  0  0  0  0  0
   39.2240   36.2920   26.6610 Cl  0  0  0  0  0  0  0  0  0  0  0  0
   38.9470   33.9610   25.3520 C   0  0  0  0  0  3  0  0  0  0  0  0
   38.6450   32.6400   25.2170 C   0  0  0  0  0  3  0  0  0  0  0  0
   38.1430   31.9600   26.2980 C   0  0  0  0  0  3  0  0  0  0  0  0
   37.9500   32.6100   27.4960 C   0  0  0  0  0  3  0  0  0  0  0  0
   36.3740   35.8270   33.5200 O   0  0  0  0  0  0  0  0  0  0  0  0
   36.2280   36.2540   34.3570 H   0  0  0  0  0  0  0  0  0  0  0  0
  1 11  1  0  0  0  0
  2  1  2  0  0  0  0
  2  8  1  0  0  0  0
  3  2  1  0  0  0  0
  4  3  1  0  0  0  0
  4  5  2  0  0  0  0
  5  6  1  0  0  0  0
  6  8  1  0  0  0  0
  6  7  2  0  0  0  0
  8  9  2  0  0  0  0
  9 10  1  0  0  0  0
  9 30  1  0  0  0  0
 11 21  1  0  0  0  0
 11 10  2  0  0  0  0
 12 18  1  0  0  0  0
 12  1  1  1  0  0  0
 13 12  1  0  0  0  0
 14 13  1  0  0  0  0
 15 14  1  0  0  0  0
 15 17  1  0  0  0  0
 16 15  1  0  0  0  0
 17 18  1  0  0  0  0
 18 19  1  1  0  0  0
 19 20  1  0  0  0  0
 21 22  1  0  0  0  0
 23  4  1  0  0  0  0
 24 25  1  0  0  0  0
 24 23  2  0  0  0  0
 26 24  1  0  0  0  0
 27 26  2  0  0  0  0
 27 28  1  0  0  0  0
 28 29  2  0  0  0  0
 29 23  1  0  0  0  0
 30 31  1  0  0  0  0
M  END
>  <minimizedAffinity>
-8.32962894

>  <minimizedRMSD>
0.733927011

$$$$
