
 OpenBabel04082420113D

 18 18  0  0  1  0  0  0  0  0999 V2000
   -0.5720   -7.1650   -4.1060 O   0  0  0  0  0  0  0  0  0  0  0  0
   -0.7330   -5.9200   -4.9280 S   0  0  0  0  0  0  0  0  0  0  0  0
    0.4850   -5.7650   -5.8250 O   0  0  0  0  0  0  0  0  0  0  0  0
   -0.8400   -4.5250   -3.9200 N   0  0  0  0  0  0  0  0  0  0  0  0
   -1.0430   -4.5730   -2.9210 H   0  0  0  0  0  0  0  0  0  0  0  0
   -0.6190   -3.3010   -4.6070 C   0  0  2  0  0  3  0  0  0  0  0  0
    0.4090   -2.4980   -3.8350 C   0  0  0  0  0  1  0  0  0  0  0  0
   -1.9160   -2.5540   -4.6920 C   0  0  0  0  0  0  0  0  0  0  0  0
   -1.9610   -1.5740   -5.4660 O   0  0  0  0  0  0  0  0  0  0  0  0
   -3.0320   -2.9080   -3.9600 O   0  0  0  0  0  1  0  0  0  0  0  0
   -2.1580   -5.9930   -5.9170 C   0  0  0  0  0  0  0  0  0  0  0  0
   -2.0660   -5.9210   -7.2840 C   0  0  0  0  0  3  0  0  0  0  0  0
   -3.1730   -5.9700   -8.1060 C   0  0  0  0  0  3  0  0  0  0  0  0
   -4.4070   -6.0980   -7.5180 C   0  0  0  0  0  0  0  0  0  0  0  0
   -4.5360   -6.1760   -6.1340 C   0  0  0  0  0  3  0  0  0  0  0  0
   -3.4020   -6.1220   -5.3480 C   0  0  0  0  0  3  0  0  0  0  0  0
   -5.5760   -6.1550   -8.2650 O   0  0  0  0  0  0  0  0  0  0  0  0
   -6.6630   -6.8810   -7.7280 C   0  0  0  0  0  1  0  0  0  0  0  0
  2  1  2  0  0  0  0
  2  4  1  0  0  0  0
  3  2  2  0  0  0  0
  4  5  1  0  0  0  0
  6  4  1  0  0  0  0
  6  7  1  1  0  0  0
  8  6  1  0  0  0  0
  8 10  1  0  0  0  0
  9  8  2  0  0  0  0
 11 16  1  0  0  0  0
 11  2  1  0  0  0  0
 12 11  2  0  0  0  0
 13 14  2  0  0  0  0
 13 12  1  0  0  0  0
 14 15  1  0  0  0  0
 15 16  2  0  0  0  0
 17 18  1  0  0  0  0
 17 14  1  0  0  0  0
M  END
>  <minimizedAffinity>
-6.26536512

>  <minimizedRMSD>
0.967552304

$$$$
