
 OpenBabel04082420103D

 19 20  0  0  1  0  0  0  0  0999 V2000
  -27.7160   -3.3510  -20.6110 C   0  0  0  0  0  0  0  0  0  0  0  0
  -27.6760   -2.0920  -20.0350 C   0  0  0  0  0  3  0  0  0  0  0  0
  -28.7050   -3.3430  -21.5670 C   0  0  0  0  0  0  0  0  0  0  0  0
  -28.6200   -1.3540  -20.6370 N   0  0  0  0  0  0  0  0  0  0  0  0
  -28.8180   -0.3790  -20.4140 H   0  0  0  0  0  0  0  0  0  0  0  0
  -29.2780   -2.0750  -21.5840 C   0  0  0  0  0  0  0  0  0  0  0  0
  -29.2280   -4.2470  -22.4620 C   0  0  0  0  0  3  0  0  0  0  0  0
  -30.3060   -1.7590  -22.4500 C   0  0  0  0  0  3  0  0  0  0  0  0
  -30.2460   -3.9600  -23.3300 C   0  0  0  0  0  3  0  0  0  0  0  0
  -30.7960   -2.6980  -23.3280 C   0  0  0  0  0  3  0  0  0  0  0  0
  -26.8890   -4.5290  -20.2950 C   0  0  0  0  0  2  0  0  0  0  0  0
  -26.0930   -4.3900  -19.0210 C   0  0  2  0  0  3  0  0  0  0  0  0
  -24.8540   -3.6590  -19.3390 N   0  0  0  0  0  4  0  0  0  0  0  0
  -24.3220   -4.0930  -20.0930 H   0  0  0  0  0  0  0  0  0  0  0  0
  -25.0290   -2.7630  -19.7950 H   0  0  0  0  0  0  0  0  0  0  0  0
  -24.3160   -3.5640  -18.4780 H   0  0  0  0  0  0  0  0  0  0  0  0
  -25.7590   -5.6690  -18.4090 C   0  0  0  0  0  0  0  0  0  0  0  0
  -26.7350   -6.6110  -18.1680 O   0  0  0  0  0  0  0  0  0  0  0  0
  -24.5790   -5.9340  -18.0930 O   0  0  0  0  0  1  0  0  0  0  0  0
  1 11  1  0  0  0  0
  1  2  2  0  0  0  0
  3  1  1  0  0  0  0
  4  5  1  0  0  0  0
  4  2  1  0  0  0  0
  6  3  1  0  0  0  0
  6  4  1  0  0  0  0
  7  3  2  0  0  0  0
  8  6  2  0  0  0  0
  9 10  2  0  0  0  0
  9  7  1  0  0  0  0
 10  8  1  0  0  0  0
 12 11  1  6  0  0  0
 12 17  1  0  0  0  0
 13 12  1  0  0  0  0
 13 16  1  0  0  0  0
 14 13  1  0  0  0  0
 15 13  1  0  0  0  0
 17 18  2  0  0  0  0
 17 19  1  0  0  0  0
M  END
>  <minimizedAffinity>
-6.02382469

>  <minimizedRMSD>
1.37743449

$$$$
