
 OpenBabel04082420003D

 16 16  0  0  1  0  0  0  0  0999 V2000
   27.2000   31.6530   19.1410 C   0  0  2  0  0  3  0  0  0  0  0  0
   25.8660   32.2670   19.0240 N   0  0  0  0  0  4  0  0  0  0  0  0
   25.4790   32.2200   18.0810 H   0  0  0  0  0  0  0  0  0  0  0  0
   25.1320   31.7340   19.4880 H   0  0  0  0  0  0  0  0  0  0  0  0
   25.9580   33.2200   19.3760 H   0  0  0  0  0  0  0  0  0  0  0  0
   27.0660   30.2710   18.6300 C   0  0  0  0  0  0  0  0  0  0  0  0
   25.8340   29.7500   18.2780 O   0  0  0  0  0  0  0  0  0  0  0  0
   28.0680   29.5260   18.5010 O   0  0  0  0  0  1  0  0  0  0  0  0
   27.5540   31.6900   20.5880 C   0  0  0  0  0  2  0  0  0  0  0  0
   27.9380   32.9770   21.1370 C   0  0  0  0  0  0  0  0  0  0  0  0
   27.4630   33.3430   22.3790 C   0  0  0  0  0  3  0  0  0  0  0  0
   27.8040   34.5620   22.9480 C   0  0  0  0  0  3  0  0  0  0  0  0
   28.6290   35.4560   22.3000 C   0  0  0  0  0  0  0  0  0  0  0  0
   29.1070   35.0970   21.0570 C   0  0  0  0  0  3  0  0  0  0  0  0
   28.9740   36.6550   22.8400 F   0  0  0  0  0  0  0  0  0  0  0  0
   28.7670   33.8900   20.5010 C   0  0  0  0  0  3  0  0  0  0  0  0
  1  9  1  1  0  0  0
  2  1  1  0  0  0  0
  2  5  1  0  0  0  0
  2  4  1  0  0  0  0
  3  2  1  0  0  0  0
  6  1  1  0  0  0  0
  7  6  2  0  0  0  0
  8  6  1  0  0  0  0
  9 10  1  0  0  0  0
 10 11  1  0  0  0  0
 11 12  2  0  0  0  0
 13 15  1  0  0  0  0
 13 12  1  0  0  0  0
 14 13  2  0  0  0  0
 16 14  1  0  0  0  0
 16 10  2  0  0  0  0
M  END
>  <minimizedAffinity>
-6.36987877

>  <minimizedRMSD>
0.560955107

$$$$
