
 OpenBabel04082420023D

 12 11  0  0  1  0  0  0  0  0999 V2000
   26.0720   31.7580   18.6380 C   0  0  2  0  0  3  0  0  0  0  0  0
   24.7830   32.2910   19.0930 N   0  0  0  0  0  4  0  0  0  0  0  0
   24.0520   32.2150   18.3860 H   0  0  0  0  0  0  0  0  0  0  0  0
   24.3420   31.7080   19.8040 H   0  0  0  0  0  0  0  0  0  0  0  0
   24.9350   33.2500   19.4050 H   0  0  0  0  0  0  0  0  0  0  0  0
   25.8520   30.3700   18.1870 C   0  0  0  0  0  0  0  0  0  0  0  0
   26.9150   29.4880   18.1690 O   0  0  0  0  0  1  0  0  0  0  0  0
   24.7290   29.9390   17.8110 O   0  0  0  0  0  0  0  0  0  0  0  0
   27.0480   31.7060   19.7920 C   0  0  0  0  0  2  0  0  0  0  0  0
   27.2910   33.0500   20.4070 C   0  0  0  0  0  2  0  0  0  0  0  0
   27.7460   32.9290   22.1570 S   0  0  0  0  0  0  0  0  0  0  0  0
   28.0120   31.2220   22.6640 C   0  0  0  0  0  1  0  0  0  0  0  0
  1  2  1  0  0  0  0
  1  9  1  1  0  0  0
  2  5  1  0  0  0  0
  2  4  1  0  0  0  0
  3  2  1  0  0  0  0
  6  1  1  0  0  0  0
  7  6  1  0  0  0  0
  8  6  2  0  0  0  0
  9 10  1  0  0  0  0
 10 11  1  0  0  0  0
 11 12  1  0  0  0  0
M  END
>  <minimizedAffinity>
-3.92691922

>  <minimizedRMSD>
0.571615875

$$$$
