
 OpenBabel04082420063D

 33 36  0  0  1  0  0  0  0  0999 V2000
    4.7170    7.5550   25.2820 C   0  0  0  0  0  0  0  0  0  0  0  0
    5.9860    7.7260   25.8410 C   0  0  0  0  0  3  0  0  0  0  0  0
    6.7150    8.8720   25.6500 C   0  0  0  0  0  0  0  0  0  0  0  0
    8.2940    8.9760   26.3980 Cl  0  0  0  0  0  0  0  0  0  0  0  0
    6.2100    9.9080   24.8900 C   0  0  0  0  0  0  0  0  0  0  0  0
    4.9580    9.7620   24.3280 C   0  0  0  0  0  0  0  0  0  0  0  0
    4.3210   11.0770   23.3650 Cl  0  0  0  0  0  0  0  0  0  0  0  0
    4.2310    8.5990   24.5280 C   0  0  0  0  0  3  0  0  0  0  0  0
    4.0210    6.3500   25.5190 N   0  0  0  0  0  0  0  0  0  0  0  0
    3.0050    6.3500   25.4240 H   0  0  0  0  0  0  0  0  0  0  0  0
    4.8010    4.8810   25.9570 S   0  0  0  0  0  0  0  0  0  0  0  0
    4.0730    3.6970   25.4030 O   0  0  0  0  0  0  0  0  0  0  0  0
    6.2030    4.8340   25.4270 O   0  0  0  0  0  0  0  0  0  0  0  0
    4.7890    4.7850   27.7050 C   0  0  0  0  0  0  0  0  0  0  0  0
    3.5810    4.7880   28.3700 C   0  0  0  0  0  0  0  0  0  0  0  0
    2.0440    4.8860   27.4960 Cl  0  0  0  0  0  0  0  0  0  0  0  0
    3.5690    4.7120   29.7550 C   0  0  0  0  0  3  0  0  0  0  0  0
    4.7400    4.6340   30.4640 C   0  0  0  0  0  0  0  0  0  0  0  0
    4.7210    4.5370   32.2280 Cl  0  0  0  0  0  0  0  0  0  0  0  0
    5.9600    4.6290   29.8210 C   0  0  0  0  0  3  0  0  0  0  0  0
    5.9540    4.7060   28.4380 C   0  0  0  0  0  3  0  0  0  0  0  0
    6.9280   11.0690   24.6870 O   0  0  0  0  0  0  0  0  0  0  0  0
    6.7820   12.1810   25.4940 C   0  0  0  0  0  0  0  0  0  0  0  0
    6.4100   12.0120   26.8080 C   0  0  0  0  0  3  0  0  0  0  0  0
    6.2650   13.1210   27.6090 C   0  0  0  0  0  0  0  0  0  0  0  0
    5.8920   12.9410   28.9220 C   0  0  0  0  0  3  0  0  0  0  0  0
    6.4990   14.3570   27.0610 C   0  0  2  0  0  3  0  0  0  0  0  0
    5.7390   14.0530   29.7560 C   0  0  0  0  0  3  0  0  0  0  0  0
    5.9760   15.2920   29.1990 C   0  0  0  0  0  3  0  0  0  0  0  0
    6.3490   15.4740   27.8830 C   0  0  0  0  0  3  0  0  0  0  0  0
    6.8590   14.4950   25.7810 N   0  0  0  0  0  0  0  0  0  0  0  0
    7.0120   13.4570   24.9700 C   0  0  0  0  0  3  0  0  0  0  0  0
    7.0240   15.4330   25.4150 H   0  0  0  0  0  0  0  0  0  0  0  0
  1  9  1  0  0  0  0
  1  2  1  0  0  0  0
  3  2  2  0  0  0  0
  3  4  1  0  0  0  0
  5  3  1  0  0  0  0
  6  8  1  0  0  0  0
  6  5  2  0  0  0  0
  7  6  1  0  0  0  0
  8  1  2  0  0  0  0
  9 11  1  0  0  0  0
 10  9  1  0  0  0  0
 11 14  1  0  0  0  0
 12 11  2  0  0  0  0
 13 11  2  0  0  0  0
 14 15  2  0  0  0  0
 14 21  1  0  0  0  0
 15 17  1  0  0  0  0
 16 15  1  0  0  0  0
 17 18  2  0  0  0  0
 18 19  1  0  0  0  0
 20 18  1  0  0  0  0
 21 20  2  0  0  0  0
 22  5  1  0  0  0  0
 22 23  1  0  0  0  0
 23 24  1  0  0  0  0
 24 25  2  0  0  0  0
 25 26  1  0  0  0  0
 26 28  2  0  0  0  0
 27 25  1  0  0  0  0
 27 30  1  6  0  0  0
 29 28  1  0  0  0  0
 30 29  2  0  0  0  0
 31 27  1  0  0  0  0
 32 23  2  0  0  0  0
 32 31  1  0  0  0  0
 33 31  1  0  0  0  0
M  END
>  <minimizedAffinity>
-11.5187626

>  <minimizedRMSD>
0.902508318

$$$$
