
 OpenBabel04082420083D

 27 28  0  0  1  0  0  0  0  0999 V2000
   -9.9800   13.4420   20.9910 C   0  0  2  0  0  3  0  0  0  0  0  0
  -10.3990   13.1300   22.3810 C   0  0  1  0  0  3  0  0  0  0  0  0
   -9.7760   14.0180   23.4270 C   0  0  0  0  0  2  0  0  0  0  0  0
   -9.5250   15.2550   22.7940 O   0  0  0  0  0  0  0  0  0  0  0  0
   -8.3760   15.0630   22.0320 C   0  0  2  0  0  3  0  0  0  0  0  0
   -7.8760   16.3030   21.3780 C   0  0  0  0  0  2  0  0  0  0  0  0
   -8.6520   14.1390   20.8860 C   0  0  2  0  0  3  0  0  0  0  0  0
   -8.5780   14.9040   19.7430 O   0  0  0  0  0  0  0  0  0  0  0  0
   -7.5910   15.8660   19.9370 C   0  0  1  0  0  0  0  0  0  0  0  0
   -7.8260   17.0590   19.1040 C   0  0  0  0  0  0  0  0  0  0  0  0
   -6.9620   18.1370   19.0180 O   0  0  0  0  0  1  0  0  0  0  0  0
   -8.8820   17.1060   18.4240 O   0  0  0  0  0  0  0  0  0  0  0  0
   -6.2310   15.2670   19.8160 C   0  0  0  0  0  2  0  0  0  0  0  0
   -5.7330   14.9980   18.4480 C   0  0  1  0  0  3  0  0  0  0  0  0
   -4.3360   15.2880   18.1740 C   0  0  0  0  0  0  0  0  0  0  0  0
   -3.7490   16.4440   18.6290 O   0  0  0  0  0  1  0  0  0  0  0  0
   -3.6460   14.4840   17.5120 O   0  0  0  0  0  0  0  0  0  0  0  0
   -6.0800   13.6260   17.9710 N   0  0  0  0  0  4  0  0  0  0  0  0
   -5.7510   12.9170   18.6260 H   0  0  0  0  0  0  0  0  0  0  0  0
   -7.0830   13.4590   18.0360 H   0  0  0  0  0  0  0  0  0  0  0  0
   -5.7370   13.4420   17.0290 H   0  0  0  0  0  0  0  0  0  0  0  0
  -11.0510   14.2370   20.3750 N   0  0  0  0  0  4  0  0  0  0  0  0
  -11.6700   13.4120   19.3540 C   0  0  0  0  0  1  0  0  0  0  0  0
  -10.7260   15.1370   20.0200 H   0  0  0  0  0  0  0  0  0  0  0  0
  -11.7200   14.5990   21.0560 H   0  0  0  0  0  0  0  0  0  0  0  0
  -11.8000   13.2560   22.5280 O   0  0  0  0  0  0  0  0  0  0  0  0
  -12.0680   13.0580   23.4180 H   0  0  0  0  0  0  0  0  0  0  0  0
  1 22  1  1  0  0  0
  1  2  1  0  0  0  0
  2 26  1  6  0  0  0
  2  3  1  0  0  0  0
  4  3  1  0  0  0  0
  5  6  1  6  0  0  0
  5  4  1  0  0  0  0
  7  8  1  6  0  0  0
  7  1  1  0  0  0  0
  7  5  1  0  0  0  0
  8  9  1  0  0  0  0
  9 13  1  6  0  0  0
  9  6  1  0  0  0  0
 10  9  1  0  0  0  0
 11 10  1  0  0  0  0
 12 10  2  0  0  0  0
 14 13  1  1  0  0  0
 15 14  1  0  0  0  0
 15 16  1  0  0  0  0
 17 15  2  0  0  0  0
 18 20  1  0  0  0  0
 18 14  1  0  0  0  0
 18 19  1  0  0  0  0
 21 18  1  0  0  0  0
 22 25  1  0  0  0  0
 23 22  1  0  0  0  0
 24 22  1  0  0  0  0
 26 27  1  0  0  0  0
M  END
>  <minimizedAffinity>
-6.35715485

>  <minimizedRMSD>
0.732423782

$$$$
