
 OpenBabel04082420103D

 25 27  0  0  1  0  0  0  0  0999 V2000
   54.4380    3.8290    3.9830 C   0  0  0  0  0  0  0  0  0  0  0  0
   53.0400    3.8160    4.0990 C   0  0  0  0  0  0  0  0  0  0  0  0
   52.3670    5.0020    4.1040 C   0  0  0  0  0  0  0  0  0  0  0  0
   52.9840    6.2300    4.0000 C   0  0  0  0  0  0  0  0  0  0  0  0
   54.3670    6.2680    3.8830 C   0  0  0  0  0  3  0  0  0  0  0  0
   55.0610    5.0880    3.8760 C   0  0  0  0  0  3  0  0  0  0  0  0
   52.3200    2.4960    4.2160 C   0  0  0  0  0  1  0  0  0  0  0  0
   50.6040    4.9390    4.2540 Cl  0  0  0  0  0  0  0  0  0  0  0  0
   52.2150    7.4420    4.0110 C   0  0  0  0  0  0  0  0  0  0  0  0
   51.6130    8.4200    4.0320 N   0  0  0  0  0  0  0  0  0  0  0  0
   55.1060    2.7010    3.9770 N   0  0  0  0  0  2  0  0  0  0  0  0
   55.6990    1.6740    4.0370 C   0  0  1  0  0  3  0  0  0  0  0  0
   56.9390    1.3690    4.7180 N   0  0  1  0  0  0  0  0  0  0  0  0
   57.8490    1.8410    5.7030 C   0  0  0  0  0  2  0  0  0  0  0  0
   57.4060    0.1030    4.1750 C   0  0  1  0  0  3  0  0  0  0  0  0
   58.5420    0.5880    6.2500 C   0  0  0  0  0  2  0  0  0  0  0  0
   58.2290   -0.5290    5.2730 C   0  0  2  0  0  3  0  0  0  0  0  0
   56.0450   -0.5830    4.0080 C   0  0  1  0  0  3  0  0  0  0  0  0
   55.3120    0.4500    3.4280 O   0  0  0  0  0  0  0  0  0  0  0  0
   59.3800   -1.0520    4.6840 O   0  0  0  0  0  0  0  0  0  0  0  0
   59.8970   -1.4490    5.3730 H   0  0  0  0  0  0  0  0  0  0  0  0
   56.1960   -1.7990    3.1410 C   0  0  0  0  0  0  0  0  0  0  0  0
   55.4110   -2.8290    3.5590 F   0  0  0  0  0  0  0  0  0  0  0  0
   57.5230   -2.2250    3.2760 F   0  0  0  0  0  0  0  0  0  0  0  0
   56.0180   -1.4800    1.8160 F   0  0  0  0  0  0  0  0  0  0  0  0
  1  2  1  0  0  0  0
  2  3  2  0  0  0  0
  2  7  1  0  0  0  0
  3  8  1  0  0  0  0
  4  9  1  0  0  0  0
  4  3  1  0  0  0  0
  5  4  2  0  0  0  0
  6  5  1  0  0  0  0
  6  1  2  0  0  0  0
  9 10  3  0  0  0  0
 11  1  1  0  0  0  0
 12 11  1  1  0  0  0
 12 13  1  0  0  0  0
 13 14  1  1  0  0  0
 14 16  1  0  0  0  0
 15 13  1  0  0  0  0
 15 17  1  0  0  0  0
 17 16  1  0  0  0  0
 18 15  1  0  0  0  0
 19 18  1  0  0  0  0
 19 12  1  0  0  0  0
 20 17  1  0  0  0  0
 20 21  1  0  0  0  0
 22 24  1  0  0  0  0
 22 23  1  0  0  0  0
 22 18  1  0  0  0  0
 25 22  1  0  0  0  0
M  END
>  <minimizedAffinity>
-8.91950607

>  <minimizedRMSD>
0.972621441

$$$$
