
 OpenBabel04082419583D

 25 26  0  0  1  0  0  0  0  0999 V2000
   33.9060   22.8000   27.4850 C   0  0  2  0  0  3  0  0  0  0  0  0
   33.4300   21.5530   27.7760 O   0  0  0  0  0  0  0  0  0  0  0  0
   32.3360   21.1420   27.0780 C   0  0  1  0  0  3  0  0  0  0  0  0
   31.8060   22.0480   26.0490 C   0  0  2  0  0  3  0  0  0  0  0  0
   32.7640   22.9290   25.3550 C   0  0  1  0  0  3  0  0  0  0  0  0
   34.1180   23.0430   26.0150 C   0  0  1  0  0  3  0  0  0  0  0  0
   35.0920   23.0400   28.2730 N   0  0  0  0  0  0  0  0  0  0  0  0
   35.0840   23.9180   29.3710 C   0  0  0  0  0  0  0  0  0  0  0  0
   34.0140   24.4980   29.6550 O   0  0  0  0  0  0  0  0  0  0  0  0
   35.9580   22.5610   28.0260 H   0  0  0  0  0  0  0  0  0  0  0  0
   36.2620   24.1670   30.1720 C   0  0  0  0  0  0  0  0  0  0  0  0
   37.2600   23.2380   30.3690 C   0  0  0  0  0  3  0  0  0  0  0  0
   38.3350   23.6030   31.1590 C   0  0  0  0  0  3  0  0  0  0  0  0
   38.4520   24.8450   31.7520 C   0  0  0  0  0  3  0  0  0  0  0  0
   37.4480   25.7780   31.5520 C   0  0  0  0  0  3  0  0  0  0  0  0
   36.3790   25.4220   30.7700 C   0  0  0  0  0  3  0  0  0  0  0  0
   34.6770   24.3100   25.8650 O   0  0  0  0  0  0  0  0  0  0  0  0
   34.8110   24.4640   24.9370 H   0  0  0  0  0  0  0  0  0  0  0  0
   32.6410   19.7380   26.5390 C   0  0  0  0  0  2  0  0  0  0  0  0
   32.7900   18.8270   27.5590 O   0  0  0  0  0  0  0  0  0  0  0  0
   32.9790   17.9580   27.2250 H   0  0  0  0  0  0  0  0  0  0  0  0
   32.9770   22.5260   24.0180 O   0  0  0  0  0  0  0  0  0  0  0  0
   33.5930   23.0940   23.5710 H   0  0  0  0  0  0  0  0  0  0  0  0
   30.7790   22.8440   26.5940 O   0  0  0  0  0  0  0  0  0  0  0  0
   30.4370   23.4300   25.9270 H   0  0  0  0  0  0  0  0  0  0  0  0
  1  2  1  0  0  0  0
  1  7  1  1  0  0  0
  3 19  1  6  0  0  0
  3  2  1  0  0  0  0
  4 24  1  1  0  0  0
  4  3  1  0  0  0  0
  5 22  1  6  0  0  0
  5  6  1  0  0  0  0
  5  4  1  0  0  0  0
  6 17  1  1  0  0  0
  6  1  1  0  0  0  0
  7  8  1  0  0  0  0
  8  9  2  0  0  0  0
  8 11  1  0  0  0  0
 10  7  1  0  0  0  0
 11 12  2  0  0  0  0
 11 16  1  0  0  0  0
 12 13  1  0  0  0  0
 13 14  2  0  0  0  0
 15 14  1  0  0  0  0
 16 15  2  0  0  0  0
 18 17  1  0  0  0  0
 19 20  1  0  0  0  0
 21 20  1  0  0  0  0
 23 22  1  0  0  0  0
 25 24  1  0  0  0  0
M  END
>  <minimizedAffinity>
-7.47011662

>  <minimizedRMSD>
0.908030272

$$$$
