
 OpenBabel04082420123D

 18 19  0  0  0  0  0  0  0  0999 V2000
   -2.7650   53.3430   12.7560 C   0  0  0  0  0  3  0  0  0  0  0  0
   -2.6050   53.5610   11.4350 N   0  0  0  0  0  0  0  0  0  0  0  0
   -3.3720   53.7110   10.7780 H   0  0  0  0  0  0  0  0  0  0  0  0
   -1.3300   53.5550   11.1060 N   0  0  0  0  0  0  0  0  0  0  0  0
   -0.9350   53.6940   10.1760 H   0  0  0  0  0  0  0  0  0  0  0  0
   -0.6720   53.3310   12.2200 N   0  0  0  0  0  0  0  0  0  0  0  0
    0.3430   53.2680   12.2950 H   0  0  0  0  0  0  0  0  0  0  0  0
   -1.5110   53.2010   13.2260 N   0  0  0  0  0  0  0  0  0  0  0  0
   -1.2560   53.0220   14.1980 H   0  0  0  0  0  0  0  0  0  0  0  0
   -3.9950   53.2850   13.4500 N   0  0  0  0  0  0  0  0  0  0  0  0
   -4.0230   53.5630   14.4320 H   0  0  0  0  0  0  0  0  0  0  0  0
   -5.1930   52.8510   12.8240 C   0  0  0  0  0  0  0  0  0  0  0  0
   -6.4070   53.1980   13.2050 C   0  0  0  0  0  3  0  0  0  0  0  0
   -7.6140   52.7240   12.5280 C   0  0  0  0  0  0  0  0  0  0  0  0
   -8.7680   53.1290   12.8190 O   0  0  0  0  0  0  0  0  0  0  0  0
   -7.4800   51.7190   11.4460 C   0  0  0  0  0  2  0  0  0  0  0  0
   -6.1980   50.9360   11.7580 C   0  0  0  0  0  2  0  0  0  0  0  0
   -5.0700   51.9410   11.6570 C   0  0  0  0  0  2  0  0  0  0  0  0
  1  8  1  0  0  0  0
  1 10  1  0  0  0  0
  2  1  1  0  0  0  0
  3  2  1  0  0  0  0
  4  2  1  0  0  0  0
  4  6  1  0  0  0  0
  5  4  1  0  0  0  0
  6  7  1  0  0  0  0
  6  8  1  0  0  0  0
  8  9  1  0  0  0  0
 10 11  1  0  0  0  0
 12 13  2  0  0  0  0
 12 10  1  0  0  0  0
 14 15  2  0  0  0  0
 14 13  1  0  0  0  0
 16 17  1  0  0  0  0
 16 14  1  0  0  0  0
 18 17  1  0  0  0  0
 18 12  1  0  0  0  0
M  END
>  <minimizedAffinity>
-4.28652954

>  <minimizedRMSD>
0.93928355

$$$$
