
 OpenBabel04082420073D

 17 19  0  0  1  0  0  0  0  0999 V2000
   -3.1600   41.1960   24.4990 O   0  0  0  0  0  0  0  0  0  0  0  0
   -1.9530   41.4960   24.6840 C   0  0  0  0  0  0  0  0  0  0  0  0
   -0.9460   41.2670   23.6750 N   0  0  0  0  0  0  0  0  0  0  0  0
   -1.3330   42.1070   25.8870 C   0  0  1  0  0  3  0  0  0  0  0  0
    0.0460   42.5550   25.3820 C   0  0  1  0  0  3  0  0  0  0  0  0
    0.2530   41.8940   24.1030 C   0  0  0  0  0  0  0  0  0  0  0  0
    1.3280   41.8760   23.4630 O   0  0  0  0  0  0  0  0  0  0  0  0
   -2.0370   43.3450   26.3530 C   0  0  2  0  0  3  0  0  0  0  0  0
   -2.5770   44.0830   25.1560 C   0  0  0  0  0  2  0  0  0  0  0  0
   -1.3090   44.3810   24.3770 C   0  0  0  0  0  2  0  0  0  0  0  0
   -0.8340   44.2560   26.6670 C   0  0  0  0  0  2  0  0  0  0  0  0
   -0.1520   44.0370   25.3020 C   0  0  1  0  0  3  0  0  0  0  0  0
   -1.1440   40.5230   22.4460 C   0  0  2  0  0  3  0  0  0  0  0  0
   -2.5890   40.1150   22.2500 C   0  0  0  0  0  1  0  0  0  0  0  0
   -0.2700   39.3190   22.3950 C   0  0  0  0  0  0  0  0  0  0  0  0
    0.0500   38.6180   23.5480 O   0  0  0  0  0  1  0  0  0  0  0  0
    0.1990   38.9140   21.3050 O   0  0  0  0  0  0  0  0  0  0  0  0
  1  2  2  0  0  0  0
  3  6  1  0  0  0  0
  3  2  1  0  0  0  0
  4  2  1  6  0  0  0
  4  8  1  0  0  0  0
  5  6  1  6  0  0  0
  5  4  1  0  0  0  0
  7  6  2  0  0  0  0
  8  9  1  6  0  0  0
  8 11  1  0  0  0  0
 10  9  1  0  0  0  0
 12 10  1  6  0  0  0
 12  5  1  0  0  0  0
 12 11  1  0  0  0  0
 13 14  1  1  0  0  0
 13  3  1  0  0  0  0
 15 13  1  0  0  0  0
 15 16  1  0  0  0  0
 17 15  2  0  0  0  0
M  END
>  <minimizedAffinity>
-3.62814474

>  <minimizedRMSD>
1.60280049

$$$$
