
 OpenBabel04082420143D

 21 22  0  0  1  0  0  0  0  0999 V2000
    1.3830   44.1110    2.6590 C   0  0  2  0  0  0  0  0  0  0  0  0
    2.7480   44.7070    2.7990 C   0  0  0  0  0  2  0  0  0  0  0  0
    1.3660   42.8940    3.3590 O   0  0  0  0  0  0  0  0  0  0  0  0
    2.6950   42.4600    3.3430 C   0  0  1  0  0  3  0  0  0  0  0  0
    3.3850   43.7230    3.7980 C   0  0  2  0  0  3  0  0  0  0  0  0
    2.9490   41.3210    4.2620 C   0  0  0  0  0  2  0  0  0  0  0  0
    3.7410   41.8350    5.4620 C   0  0  0  0  0  2  0  0  0  0  0  0
    3.0760   43.0750    6.0000 C   0  0  0  0  0  2  0  0  0  0  0  0
    2.9100   44.0590    5.0590 O   0  0  0  0  0  0  0  0  0  0  0  0
    0.9790   43.9380    1.2470 C   0  0  0  0  0  2  0  0  0  0  0  0
   -0.4370   43.6580    0.9330 C   0  0  1  0  0  3  0  0  0  0  0  0
   -0.9680   44.0340   -0.3640 C   0  0  0  0  0  0  0  0  0  0  0  0
   -1.5080   43.1390   -1.1090 O   0  0  0  0  0  0  0  0  0  0  0  0
   -0.9740   45.3010   -0.9320 O   0  0  0  0  0  1  0  0  0  0  0  0
   -0.5450   42.1410    0.9750 N   0  0  0  0  0  4  0  0  0  0  0  0
   -1.4850   41.7890    0.7950 H   0  0  0  0  0  0  0  0  0  0  0  0
   -0.0920   41.6720    0.1910 H   0  0  0  0  0  0  0  0  0  0  0  0
   -0.1720   41.8770    1.8860 H   0  0  0  0  0  0  0  0  0  0  0  0
    0.4450   45.0480    3.3750 C   0  0  0  0  0  0  0  0  0  0  0  0
    0.0290   46.2100    2.7510 O   0  0  0  0  0  0  0  0  0  0  0  0
    0.0170   44.8170    4.5310 O   0  0  0  0  0  1  0  0  0  0  0  0
  1 10  1  6  0  0  0
  1  2  1  0  0  0  0
  1  3  1  0  0  0  0
  1 19  1  0  0  0  0
  4  3  1  0  0  0  0
  4  5  1  0  0  0  0
  4  6  1  1  0  0  0
  5  2  1  6  0  0  0
  5  9  1  0  0  0  0
  6  7  1  0  0  0  0
  7  8  1  0  0  0  0
  9  8  1  0  0  0  0
 11 15  1  0  0  0  0
 11 10  1  6  0  0  0
 12 11  1  0  0  0  0
 13 12  2  0  0  0  0
 14 12  1  0  0  0  0
 15 18  1  0  0  0  0
 16 15  1  0  0  0  0
 17 15  1  0  0  0  0
 19 21  1  0  0  0  0
 20 19  2  0  0  0  0
M  END
>  <minimizedAffinity>
-7.94745207

>  <minimizedRMSD>
0.445494235

$$$$
