
 OpenBabel04082420033D

 35 38  0  0  1  0  0  0  0  0999 V2000
   18.0290   17.0450   23.0690 C   0  0  0  0  0  0  0  0  0  0  0  0
   19.1690   17.3860   23.5030 O   0  0  0  0  0  0  0  0  0  0  0  0
   17.0240   16.7440   23.9190 N   0  0  0  0  0  0  0  0  0  0  0  0
   17.1800   16.7910   24.9250 H   0  0  0  0  0  0  0  0  0  0  0  0
   15.8130   16.3830   23.4450 C   0  0  1  0  0  3  0  0  0  0  0  0
   15.6310   16.3280   22.1160 N   0  0  0  0  0  0  0  0  0  0  0  0
   14.7150   16.0560   21.7590 H   0  0  0  0  0  0  0  0  0  0  0  0
   16.6110   16.6210   21.2310 C   0  0  0  0  0  0  0  0  0  0  0  0
   16.3830   16.5530   19.8830 C   0  0  0  0  0  0  0  0  0  0  0  0
   17.4430   16.8720   19.0220 C   0  0  0  0  0  0  0  0  0  0  0  0
   17.5010   16.8880   17.6800 N   0  0  0  0  0  0  0  0  0  0  0  0
   16.7260   16.6550   17.0600 H   0  0  0  0  0  0  0  0  0  0  0  0
   18.7370   17.2600   17.2690 C   0  0  1  0  0  3  0  0  0  0  0  0
   19.4390   17.4720   18.3940 N   0  0  0  0  0  0  0  0  0  0  0  0
   20.4150   17.7660   18.4260 H   0  0  0  0  0  0  0  0  0  0  0  0
   18.6710   17.2420   19.4750 C   0  0  0  0  0  0  0  0  0  0  0  0
   18.9130   17.3130   20.8320 C   0  0  0  0  0  3  0  0  0  0  0  0
   17.8730   16.9980   21.6990 C   0  0  0  0  0  0  0  0  0  0  0  0
   15.1060   16.1460   19.2790 C   0  0  0  0  0  2  0  0  0  0  0  0
   14.9950   14.6940   18.9350 C   0  0  0  0  0  2  0  0  0  0  0  0
   14.1190   14.4930   17.7680 N   0  0  0  0  0  4  0  0  0  0  0  0
   14.2860   15.2160   17.0690 H   0  0  0  0  0  0  0  0  0  0  0  0
   14.4110   13.6690   17.2410 H   0  0  0  0  0  0  0  0  0  0  0  0
   12.7390   14.4150   18.0810 C   0  0  0  0  0  2  0  0  0  0  0  0
   12.0480   15.7030   18.3670 C   0  0  0  0  0  3  0  0  0  0  0  0
   10.5890   15.5120   18.6390 C   0  0  0  0  0  2  0  0  0  0  0  0
   10.0300   15.0830   17.2940 C   0  0  0  0  0  2  0  0  0  0  0  0
   10.8400   15.8950   16.2820 C   0  0  0  0  0  2  0  0  0  0  0  0
   11.9910   16.5150   17.0730 C   0  0  0  0  0  2  0  0  0  0  0  0
   14.8660   16.0920   24.2820 N   0  0  0  0  0  0  0  0  0  0  0  0
   15.0050   16.1330   25.2920 H   0  0  0  0  0  0  0  0  0  0  0  0
   13.9520   15.8190   23.9230 H   0  0  0  0  0  0  0  0  0  0  0  0
   19.1810   17.3790   15.9040 N   0  0  0  0  0  0  0  0  0  0  0  0
   18.3550   17.8780   14.8420 C   0  0  0  0  0  1  0  0  0  0  0  0
   20.1340   17.0930   15.6800 H   0  0  0  0  0  0  0  0  0  0  0  0
  1  2  2  0  0  0  0
  1  3  1  0  0  0  0
  3  4  1  0  0  0  0
  5  3  1  0  0  0  0
  5 30  1  1  0  0  0
  6  5  1  0  0  0  0
  7  6  1  0  0  0  0
  8 18  1  0  0  0  0
  8  6  1  0  0  0  0
  9  8  2  0  0  0  0
 10 16  2  0  0  0  0
 10  9  1  0  0  0  0
 11 10  1  0  0  0  0
 12 11  1  0  0  0  0
 13 33  1  1  0  0  0
 13 11  1  0  0  0  0
 13 14  1  0  0  0  0
 14 15  1  0  0  0  0
 14 16  1  0  0  0  0
 16 17  1  0  0  0  0
 17 18  2  0  0  0  0
 18  1  1  0  0  0  0
 19  9  1  0  0  0  0
 20 19  1  0  0  0  0
 21 24  1  0  0  0  0
 21 20  1  0  0  0  0
 22 21  1  0  0  0  0
 23 21  1  0  0  0  0
 24 25  1  0  0  0  0
 25 26  1  0  0  0  0
 27 26  1  0  0  0  0
 28 29  1  0  0  0  0
 28 27  1  0  0  0  0
 29 25  1  0  0  0  0
 30 31  1  0  0  0  0
 32 30  1  0  0  0  0
 34 33  1  0  0  0  0
 35 33  1  0  0  0  0
M  END
>  <minimizedAffinity>
-10.4041824

>  <minimizedRMSD>
0.421496123

$$$$
