
 OpenBabel04082419563D

 47 53  0  0  1  0  0  0  0  0999 V2000
   30.7820    6.8840   36.9570 O   0  0  0  0  0  0  0  0  0  0  0  0
   30.3050    7.1110   38.1280 C   0  0  0  0  0  0  0  0  0  0  0  0
   28.9130    6.8830   38.2580 N   0  0  0  0  0  0  0  0  0  0  0  0
   28.6950    5.9440   39.3470 C   0  0  0  0  0  0  0  0  0  0  0  0
   29.8330    5.7660   40.1160 C   0  0  0  0  0  3  0  0  0  0  0  0
   29.7960    4.9180   41.2020 C   0  0  0  0  0  3  0  0  0  0  0  0
   27.9240    7.4530   37.4510 C   0  0  2  0  0  3  0  0  0  0  0  0
   26.7800    6.6100   37.0710 C   0  0  0  0  0  0  0  0  0  0  0  0
   26.2720    6.7060   35.3810 S   0  0  2  0  0  0  0  0  0  0  0  0
   27.2750    7.2450   34.4670 O   0  0  0  0  0  0  0  0  0  0  0  0
   24.9210    7.2730   35.2090 O   0  0  0  0  0  1  0  0  0  0  0  0
   26.1140    4.9490   34.9270 C   0  0  0  0  0  2  0  0  0  0  0  0
   25.2400    4.2210   35.8920 C   0  0  0  0  0  0  0  0  0  0  0  0
   23.9080    3.9720   35.1650 C   0  0  0  0  0  1  0  0  0  0  0  0
   25.7690    2.8590   36.3040 C   0  0  0  0  0  1  0  0  0  0  0  0
   24.9050    4.9730   37.1270 C   0  0  0  0  0  2  0  0  0  0  0  0
   26.0370    5.7150   37.7220 C   0  0  0  0  0  0  0  0  0  0  0  0
   26.2660    5.3260   39.0660 N   0  0  0  0  0  0  0  0  0  0  0  0
   25.4500    5.0780   39.6250 H   0  0  0  0  0  0  0  0  0  0  0  0
   27.5570    5.2520   39.7140 C   0  0  0  0  0  0  0  0  0  0  0  0
   27.5120    4.3950   40.8080 C   0  0  0  0  0  0  0  0  0  0  0  0
   28.6460    4.2360   41.5470 C   0  0  0  0  0  3  0  0  0  0  0  0
   28.2500    8.4300   36.4320 C   0  0  0  0  0  0  0  0  0  0  0  0
   28.0660    9.7870   36.7640 C   0  0  0  0  0  0  0  0  0  0  0  0
   27.6620   10.0880   38.0440 F   0  0  0  0  0  0  0  0  0  0  0  0
   28.2790   10.8240   35.9060 C   0  0  0  0  0  3  0  0  0  0  0  0
   28.7050   10.5430   34.6260 C   0  0  0  0  0  0  0  0  0  0  0  0
   28.9050    9.2320   34.2380 C   0  0  0  0  0  3  0  0  0  0  0  0
   28.6740    8.2020   35.1440 C   0  0  0  0  0  0  0  0  0  0  0  0
   28.9290   11.5860   33.7390 O   0  0  0  0  0  0  0  0  0  0  0  0
   29.3230   11.3040   32.4090 C   0  0  0  0  0  2  0  0  0  0  0  0
   28.1340   11.0440   31.5640 C   0  0  0  0  0  0  0  0  0  0  0  0
   26.9520   11.7330   31.6550 C   0  0  0  0  0  3  0  0  0  0  0  0
   25.8600   11.4680   30.8380 C   0  0  0  0  0  3  0  0  0  0  0  0
   25.9430   10.4750   29.8830 C   0  0  0  0  0  3  0  0  0  0  0  0
   27.1100    9.7750   29.7720 C   0  0  0  0  0  3  0  0  0  0  0  0
   28.1830   10.0420   30.5820 C   0  0  0  0  0  3  0  0  0  0  0  0
   31.2040    7.5530   39.1730 C   0  0  1  0  0  3  0  0  0  0  0  0
   32.5220    7.1720   39.2140 C   0  0  0  0  0  3  0  0  0  0  0  0
   33.3510    7.6400   40.2180 C   0  0  0  0  0  3  0  0  0  0  0  0
   32.8710    8.4900   41.1900 C   0  0  0  0  0  3  0  0  0  0  0  0
   31.5310    8.8600   41.1230 C   0  0  0  0  0  0  0  0  0  0  0  0
   31.0300    9.8030   42.1810 C   0  0  0  0  0  1  0  0  0  0  0  0
   30.7710    8.3910   40.1480 N   0  0  0  0  0  0  0  0  0  0  0  0
   29.7930    8.6790   40.1260 H   0  0  0  0  0  0  0  0  0  0  0  0
   26.3120    3.7570   41.0790 O   0  0  0  0  0  0  0  0  0  0  0  0
   26.2820    3.1710   41.8270 H   0  0  0  0  0  0  0  0  0  0  0  0
  1  2  2  0  0  0  0
  2  3  1  0  0  0  0
  3  4  1  0  0  0  0
  4 20  2  0  0  0  0
  4  5  1  0  0  0  0
  5  6  2  0  0  0  0
  6 22  1  0  0  0  0
  7 23  1  6  0  0  0
  7  3  1  0  0  0  0
  8  7  1  0  0  0  0
  8 17  2  0  0  0  0
  9 11  1  6  0  0  0
  9  8  1  0  0  0  0
 10 29  1  0  0  0  0
 10  9  1  0  0  0  0
 12  9  1  0  0  0  0
 12 13  1  0  0  0  0
 13 15  1  0  0  0  0
 13 16  1  0  0  0  0
 14 13  1  0  0  0  0
 16 17  1  0  0  0  0
 17 18  1  0  0  0  0
 18 19  1  0  0  0  0
 18 20  1  0  0  0  0
 20 21  1  0  0  0  0
 21 46  1  0  0  0  0
 21 22  2  0  0  0  0
 23 24  1  0  0  0  0
 24 25  1  0  0  0  0
 26 24  2  0  0  0  0
 27 26  1  0  0  0  0
 28 27  2  0  0  0  0
 28 29  1  0  0  0  0
 29 23  2  0  0  0  0
 30 27  1  0  0  0  0
 31 30  1  0  0  0  0
 32 33  1  0  0  0  0
 32 31  1  0  0  0  0
 34 33  2  0  0  0  0
 35 34  1  0  0  0  0
 36 35  2  0  0  0  0
 36 37  1  0  0  0  0
 37 32  2  0  0  0  0
 38  2  1  6  0  0  0
 38 39  1  0  0  0  0
 38 44  1  0  0  0  0
 39 40  2  0  0  0  0
 40 41  1  0  0  0  0
 42 41  2  0  0  0  0
 42 43  1  0  0  0  0
 44 42  1  0  0  0  0
 45 44  1  0  0  0  0
 46 47  1  0  0  0  0
M  END
>  <minimizedAffinity>
-12.2670078

>  <minimizedRMSD>
1.62755442

$$$$
