
 OpenBabel04082419593D

 19 20  0  0  1  0  0  0  0  0999 V2000
  -37.3620    4.4240    8.3080 O   0  0  0  0  0  0  0  0  0  0  0  0
  -37.5370    4.6500    9.5480 C   0  0  0  0  0  0  0  0  0  0  0  0
  -36.6540    5.2420   10.5370 C   0  0  2  0  0  3  0  0  0  0  0  0
  -37.4210    5.2300   11.7800 C   0  0  1  0  0  3  0  0  0  0  0  0
  -37.0380    5.7110   13.1440 C   0  0  0  0  0  1  0  0  0  0  0  0
  -38.5640    4.7140   11.5500 N   0  0  0  0  0  0  0  0  0  0  0  0
  -39.2780    4.5980   12.2690 H   0  0  0  0  0  0  0  0  0  0  0  0
  -38.7460    4.3230   10.2250 N   0  0  0  0  0  0  0  0  0  0  0  0
  -39.9030    3.7230    9.6600 C   0  0  0  0  0  3  0  0  0  0  0  0
  -40.6210    2.7060   10.1530 N   0  0  0  0  0  0  0  0  0  0  0  0
  -41.6350    2.4310    9.3290 N   0  0  0  0  0  0  0  0  0  0  0  0
  -40.4240    2.2160   11.0250 H   0  0  0  0  0  0  0  0  0  0  0  0
  -41.5610    3.2660    8.3190 N   0  0  0  0  0  0  0  0  0  0  0  0
  -42.3380    1.7040    9.4590 H   0  0  0  0  0  0  0  0  0  0  0  0
  -40.5030    4.0630    8.5140 N   0  0  0  0  0  0  0  0  0  0  0  0
  -42.2000    3.3040    7.5250 H   0  0  0  0  0  0  0  0  0  0  0  0
  -40.2010    4.8100    7.8870 H   0  0  0  0  0  0  0  0  0  0  0  0
  -36.1000    6.5820   10.1720 C   0  0  0  0  0  2  0  0  0  0  0  0
  -34.7550    6.8740   10.7530 C   0  0  0  0  0  1  0  0  0  0  0  0
  1  2  2  0  0  0  0
  2  8  1  0  0  0  0
  2  3  1  0  0  0  0
  3 18  1  6  0  0  0
  3  4  1  0  0  0  0
  4  5  1  6  0  0  0
  6  4  1  0  0  0  0
  6  7  1  0  0  0  0
  8  6  1  0  0  0  0
  9 10  1  0  0  0  0
  9  8  1  0  0  0  0
 10 12  1  0  0  0  0
 11 14  1  0  0  0  0
 11 10  1  0  0  0  0
 13 15  1  0  0  0  0
 13 11  1  0  0  0  0
 15  9  1  0  0  0  0
 16 13  1  0  0  0  0
 17 15  1  0  0  0  0
 18 19  1  0  0  0  0
M  END
>  <minimizedAffinity>
-4.17576313

>  <minimizedRMSD>
0.916639805

$$$$
