
 OpenBabel04082420143D

 13 13  0  0  0  0  0  0  0  0999 V2000
  -35.4710    5.3880   16.3180 C   0  0  0  0  0  0  0  0  0  0  0  0
  -35.6000    6.6650   15.9020 C   0  0  0  0  0  3  0  0  0  0  0  0
  -35.3280    7.6660   16.8170 C   0  0  0  0  0  3  0  0  0  0  0  0
  -34.8820    6.7450   18.3000 S   0  0  0  0  0  0  0  0  0  0  0  0
  -35.0910    5.1450   17.5830 C   0  0  0  0  0  0  0  0  0  0  0  0
  -35.7320    4.2380   15.4330 N   0  0  0  0  0  0  0  0  0  0  0  0
  -34.9730    4.0760   14.2620 C   0  0  0  0  0  0  0  0  0  0  0  0
  -34.0720    4.9280   14.0210 O   0  0  0  0  0  0  0  0  0  0  0  0
  -35.2330    2.9270   13.3370 C   0  0  0  0  0  1  0  0  0  0  0  0
  -36.4610    3.5650   15.6690 H   0  0  0  0  0  0  0  0  0  0  0  0
  -34.8780    3.8670   18.2820 C   0  0  0  0  0  0  0  0  0  0  0  0
  -35.1320    3.7060   19.4790 O   0  0  0  0  0  1  0  0  0  0  0  0
  -34.3700    2.7960   17.5600 O   0  0  0  0  0  0  0  0  0  0  0  0
  1  5  2  0  0  0  0
  2  1  1  0  0  0  0
  2  3  2  0  0  0  0
  3  4  1  0  0  0  0
  5 11  1  0  0  0  0
  5  4  1  0  0  0  0
  6 10  1  0  0  0  0
  6  1  1  0  0  0  0
  7  6  1  0  0  0  0
  8  7  2  0  0  0  0
  9  7  1  0  0  0  0
 11 12  1  0  0  0  0
 13 11  2  0  0  0  0
M  END
>  <minimizedAffinity>
-3.4680109

>  <minimizedRMSD>
0.539769471

$$$$
