
 OpenBabel04082420183D

 26 28  0  0  1  0  0  0  0  0999 V2000
   29.1280   -2.1350   12.5400 O   0  0  0  0  0  0  0  0  0  0  0  0
   30.2510   -1.3210   12.6890 C   0  0  1  0  0  3  0  0  0  0  0  0
   29.7740    0.1110   12.8190 C   0  0  0  0  0  1  0  0  0  0  0  0
   31.0000   -1.6650   13.9410 C   0  0  2  0  0  3  0  0  0  0  0  0
   31.9890   -0.9590   14.5100 N   0  0  0  0  0  0  0  0  0  0  0  0
   32.4400   -1.5650   15.6360 C   0  0  0  0  0  0  0  0  0  0  0  0
   32.3530   -0.0800   14.1430 H   0  0  0  0  0  0  0  0  0  0  0  0
   33.4130   -1.2650   16.5660 C   0  0  0  0  0  3  0  0  0  0  0  0
   31.6750   -2.7150   15.7600 C   0  0  0  0  0  0  0  0  0  0  0  0
   33.6620   -2.0770   17.6330 C   0  0  0  0  0  3  0  0  0  0  0  0
   32.9170   -3.2220   17.7770 C   0  0  0  0  0  3  0  0  0  0  0  0
   31.9340   -3.5300   16.8420 C   0  0  0  0  0  3  0  0  0  0  0  0
   30.8200   -2.7430   14.7230 N   0  0  0  0  0  0  0  0  0  0  0  0
   30.1320   -3.4780   14.5540 H   0  0  0  0  0  0  0  0  0  0  0  0
   28.4490   -2.1170   11.3290 C   0  0  0  0  0  0  0  0  0  0  0  0
   28.9810   -1.5100   10.3390 O   0  0  0  0  0  0  0  0  0  0  0  0
   27.1910   -2.7410   11.1390 N   0  0  0  0  0  0  0  0  0  0  0  0
   26.9900   -3.6180   11.6200 H   0  0  0  0  0  0  0  0  0  0  0  0
   26.2070   -2.1750   10.2950 C   0  0  0  0  0  0  0  0  0  0  0  0
   24.9480   -2.7260   10.1920 C   0  0  0  0  0  3  0  0  0  0  0  0
   24.0060   -2.1530    9.3620 C   0  0  0  0  0  3  0  0  0  0  0  0
   24.2980   -1.0210    8.6150 C   0  0  0  0  0  0  0  0  0  0  0  0
   23.0600   -0.3390    7.5770 Cl  0  0  0  0  0  0  0  0  0  0  0  0
   25.5480   -0.4630    8.7080 C   0  0  0  0  0  0  0  0  0  0  0  0
   25.9610    0.9640    7.7850 Cl  0  0  0  0  0  0  0  0  0  0  0  0
   26.4750   -1.0450    9.5400 C   0  0  0  0  0  3  0  0  0  0  0  0
  1  2  1  0  0  0  0
  2  3  1  1  0  0  0
  4  2  1  6  0  0  0
  4  5  1  0  0  0  0
  4 13  1  0  0  0  0
  5  6  1  0  0  0  0
  6  9  2  0  0  0  0
  6  8  1  0  0  0  0
  7  5  1  0  0  0  0
  8 10  2  0  0  0  0
  9 12  1  0  0  0  0
 10 11  1  0  0  0  0
 12 11  2  0  0  0  0
 13  9  1  0  0  0  0
 14 13  1  0  0  0  0
 15  1  1  0  0  0  0
 16 15  2  0  0  0  0
 17 15  1  0  0  0  0
 17 18  1  0  0  0  0
 19 17  1  0  0  0  0
 20 19  1  0  0  0  0
 21 20  2  0  0  0  0
 22 24  2  0  0  0  0
 22 21  1  0  0  0  0
 23 22  1  0  0  0  0
 24 26  1  0  0  0  0
 25 24  1  0  0  0  0
 26 19  2  0  0  0  0
M  END
>  <minimizedAffinity>
-2.88225269

>  <minimizedRMSD>
0.769169152

$$$$
