
 OpenBabel04082420183D

 33 35  0  0  0  0  0  0  0  0999 V2000
   29.2380   -7.3760   26.0770 O   0  0  0  0  0  0  0  0  0  0  0  0
   27.2100   -8.3110   26.5950 N   0  0  0  0  0  0  0  0  0  0  0  0
   27.0840   -9.2960   26.3630 H   0  0  0  0  0  0  0  0  0  0  0  0
   28.4670   -7.8130   26.9660 C   0  0  0  0  0  0  0  0  0  0  0  0
   26.1230   -7.4080   26.5520 N   0  0  0  0  0  0  0  0  0  0  0  0
   25.7840   -6.8270   25.2610 C   0  0  0  0  0  0  0  0  0  0  0  0
   26.8180   -6.1730   24.5450 N   0  0  0  0  0  0  0  0  0  0  0  0
   24.5960   -6.9450   24.8730 O   0  0  0  0  0  0  0  0  0  0  0  0
   27.7760   -6.5170   24.6340 H   0  0  0  0  0  0  0  0  0  0  0  0
   25.5960   -7.1740   27.3930 H   0  0  0  0  0  0  0  0  0  0  0  0
   26.5650   -5.0720   23.7190 C   0  0  0  0  0  0  0  0  0  0  0  0
   27.3370   -4.8550   22.5620 C   0  0  0  0  0  0  0  0  0  0  0  0
   27.0530   -3.7920   21.7330 C   0  0  0  0  0  0  0  0  0  0  0  0
   28.3800   -5.7040   22.2640 C   0  0  0  0  0  3  0  0  0  0  0  0
   26.0180   -2.8970   21.9820 C   0  0  0  0  0  3  0  0  0  0  0  0
   27.8460   -3.6140   20.6030 C   0  0  0  0  0  3  0  0  0  0  0  0
   25.2730   -3.1100   23.1030 C   0  0  0  0  0  3  0  0  0  0  0  0
   25.5510   -4.1860   23.9550 C   0  0  0  0  0  3  0  0  0  0  0  0
   28.8940   -4.4430   20.2750 C   0  0  0  0  0  3  0  0  0  0  0  0
   29.1440   -5.4920   21.1290 C   0  0  0  0  0  3  0  0  0  0  0  0
   28.9130   -7.7850   28.3490 C   0  0  0  0  0  0  0  0  0  0  0  0
   28.0350   -8.0890   29.3570 C   0  0  0  0  0  3  0  0  0  0  0  0
   28.4040   -8.0810   30.7220 C   0  0  0  0  0  0  0  0  0  0  0  0
   29.6880   -7.7630   31.0840 C   0  0  0  0  0  0  0  0  0  0  0  0
   30.5710   -7.4550   30.0420 C   0  0  0  0  0  3  0  0  0  0  0  0
   30.2020   -7.4630   28.7120 C   0  0  0  0  0  3  0  0  0  0  0  0
   27.3930   -8.3580   31.6630 N   0  0  0  0  0  0  0  0  0  0  0  0
   27.2030   -9.6940   32.0180 O   0  0  0  0  0  0  0  0  0  0  0  0
   26.6900   -7.5410   32.1970 O   0  0  0  0  0  0  0  0  0  0  0  0
   30.1800   -7.7720   32.4820 C   0  0  0  0  0  0  0  0  0  0  0  0
   29.6490   -6.4950   33.1620 C   0  0  0  0  0  1  0  0  0  0  0  0
   29.6150   -8.9420   33.2130 C   0  0  0  0  0  1  0  0  0  0  0  0
   31.6900   -7.6410   32.5870 C   0  0  0  0  0  1  0  0  0  0  0  0
  1  4  2  0  0  0  0
  2  4  1  0  0  0  0
  3  2  1  0  0  0  0
  4 21  1  0  0  0  0
  5  2  1  0  0  0  0
  5 10  1  0  0  0  0
  6  5  1  0  0  0  0
  7  9  1  0  0  0  0
  7  6  1  0  0  0  0
  8  6  2  0  0  0  0
 11 18  1  0  0  0  0
 11  7  1  0  0  0  0
 12 11  2  0  0  0  0
 13 15  2  0  0  0  0
 13 12  1  0  0  0  0
 14 12  1  0  0  0  0
 15 17  1  0  0  0  0
 16 13  1  0  0  0  0
 17 18  2  0  0  0  0
 19 16  2  0  0  0  0
 19 20  1  0  0  0  0
 20 14  2  0  0  0  0
 21 26  2  0  0  0  0
 21 22  1  0  0  0  0
 22 23  2  0  0  0  0
 23 24  1  0  0  0  0
 23 27  1  0  0  0  0
 24 30  1  0  0  0  0
 25 24  2  0  0  0  0
 26 25  1  0  0  0  0
 27 28  2  0  0  0  0
 27 29  2  0  0  0  0
 30 33  1  0  0  0  0
 30 31  1  0  0  0  0
 30 32  1  0  0  0  0
M  END
>  <minimizedAffinity>
-5.50279903

>  <minimizedRMSD>
0.706076562

$$$$
