
 OpenBabel04082420073D

 18 20  0  0  0  0  0  0  0  0999 V2000
    9.3520   80.7090   -1.9200 C   0  0  0  0  0  0  0  0  0  0  0  0
   10.4470   80.6270   -1.1310 N   0  0  0  0  0  0  0  0  0  0  0  0
   11.3300   80.2380   -1.4640 H   0  0  0  0  0  0  0  0  0  0  0  0
    9.3300   80.3220   -3.1130 O   0  0  0  0  0  0  0  0  0  0  0  0
    6.5610   81.5070   -2.1590 S   0  0  0  0  0  0  0  0  0  0  0  0
    3.4000   82.6180   -1.8040 Cl  0  0  0  0  0  0  0  0  0  0  0  0
   10.2960   81.0880    0.1180 C   0  0  0  0  0  2  0  0  0  0  0  0
    9.1750   81.5970    0.5940 N   0  0  0  0  0  0  0  0  0  0  0  0
    9.1670   81.9200    1.5610 H   0  0  0  0  0  0  0  0  0  0  0  0
    7.5660   82.8370    2.8090 Cl  0  0  0  0  0  0  0  0  0  0  0  0
    8.0110   81.7200   -0.1430 C   0  0  0  0  0  0  0  0  0  0  0  0
    8.1740   81.2440   -1.4240 C   0  0  0  0  0  0  0  0  0  0  0  0
    5.8040   82.2280   -0.7010 C   0  0  0  0  0  0  0  0  0  0  0  0
    4.5380   82.6940   -0.4950 C   0  0  0  0  0  0  0  0  0  0  0  0
    4.2000   83.2090    0.7390 C   0  0  0  0  0  3  0  0  0  0  0  0
    5.1830   83.2130    1.6850 C   0  0  0  0  0  3  0  0  0  0  0  0
    6.4420   82.7470    1.4720 C   0  0  0  0  0  0  0  0  0  0  0  0
    6.8140   82.2120    0.2080 C   0  0  0  0  0  0  0  0  0  0  0  0
  1 12  1  0  0  0  0
  1  2  1  0  0  0  0
  2  7  1  0  0  0  0
  3  2  1  0  0  0  0
  4  1  2  0  0  0  0
  5 12  1  0  0  0  0
  5 13  1  0  0  0  0
  6 14  1  0  0  0  0
  7  8  1  0  0  0  0
  8  9  1  0  0  0  0
 11 18  1  0  0  0  0
 11  8  1  0  0  0  0
 12 11  2  0  0  0  0
 13 14  2  0  0  0  0
 13 18  1  0  0  0  0
 14 15  1  0  0  0  0
 15 16  2  0  0  0  0
 17 16  1  0  0  0  0
 17 10  1  0  0  0  0
 18 17  2  0  0  0  0
M  END
>  <minimizedAffinity>
-7.4451642

>  <minimizedRMSD>
0.939400554

$$$$
