
 OpenBabel04082420193D

 30 32  0  0  1  0  0  0  0  0999 V2000
   20.4000   44.0580   53.7670 C   0  0  2  0  0  3  0  0  0  0  0  0
   21.4500   43.6430   53.0510 N   0  0  0  0  0  0  0  0  0  0  0  0
   21.2750   43.0460   52.2420 H   0  0  0  0  0  0  0  0  0  0  0  0
   22.7160   43.9650   53.3370 C   0  0  0  0  0  2  0  0  0  0  0  0
   22.9670   44.7480   54.3960 N   0  0  0  0  0  0  0  0  0  0  0  0
   23.9320   44.9940   54.6140 H   0  0  0  0  0  0  0  0  0  0  0  0
   21.9700   45.2210   55.1840 C   0  0  0  0  0  0  0  0  0  0  0  0
   20.6800   44.8750   54.8700 C   0  0  0  0  0  3  0  0  0  0  0  0
   19.0580   43.7330   53.4970 N   0  0  0  0  0  0  0  0  0  0  0  0
   18.3310   44.1810   54.0550 H   0  0  0  0  0  0  0  0  0  0  0  0
   18.6620   42.8220   52.4930 C   0  0  0  0  0  0  0  0  0  0  0  0
   19.4600   42.2840   51.5290 C   0  0  0  0  0  3  0  0  0  0  0  0
   19.0010   41.3780   50.5890 C   0  0  0  0  0  3  0  0  0  0  0  0
   17.6940   40.9820   50.5980 C   0  0  0  0  0  0  0  0  0  0  0  0
   16.8330   41.5030   51.5630 C   0  0  0  0  0  3  0  0  0  0  0  0
   17.3270   42.4010   52.4820 C   0  0  0  0  0  3  0  0  0  0  0  0
   17.1780   40.0670   49.6680 O   0  0  0  0  0  0  0  0  0  0  0  0
   16.9810   38.7420   50.1590 C   0  0  0  0  0  0  0  0  0  0  0  0
   16.5190   38.7430   51.4520 F   0  0  0  0  0  0  0  0  0  0  0  0
   18.1780   38.0810   50.0120 F   0  0  0  0  0  0  0  0  0  0  0  0
   16.0340   38.0820   49.3890 F   0  0  0  0  0  0  0  0  0  0  0  0
   22.2700   46.0620   56.3250 C   0  0  0  0  0  0  0  0  0  0  0  0
   23.4980   46.6270   56.5530 C   0  0  0  0  0  3  0  0  0  0  0  0
   23.7750   47.4370   57.6530 C   0  0  0  0  0  0  0  0  0  0  0  0
   22.7400   47.6600   58.5340 C   0  0  0  0  0  3  0  0  0  0  0  0
   21.4960   47.1100   58.3370 C   0  0  0  0  0  3  0  0  0  0  0  0
   21.2510   46.3190   57.2520 C   0  0  0  0  0  3  0  0  0  0  0  0
   25.1010   48.0110   57.8450 C   0  0  0  0  0  0  0  0  0  0  0  0
   25.2740   49.2350   57.6650 O   0  0  0  0  0  0  0  0  0  0  0  0
   26.2050   47.2150   58.2330 N   0  0  0  0  0  1  0  0  0  0  0  0
  1  9  1  1  0  0  0
  1  8  1  0  0  0  0
  2  4  1  0  0  0  0
  2  1  1  0  0  0  0
  3  2  1  0  0  0  0
  4  5  1  0  0  0  0
  5  6  1  0  0  0  0
  5  7  1  0  0  0  0
  7 22  1  0  0  0  0
  8  7  2  0  0  0  0
  9 10  1  0  0  0  0
 11  9  1  0  0  0  0
 12 11  2  0  0  0  0
 13 14  2  0  0  0  0
 13 12  1  0  0  0  0
 14 15  1  0  0  0  0
 15 16  2  0  0  0  0
 16 11  1  0  0  0  0
 17 18  1  0  0  0  0
 17 14  1  0  0  0  0
 18 19  1  0  0  0  0
 20 18  1  0  0  0  0
 21 18  1  0  0  0  0
 22 23  2  0  0  0  0
 22 27  1  0  0  0  0
 23 24  1  0  0  0  0
 24 28  1  0  0  0  0
 24 25  2  0  0  0  0
 26 25  1  0  0  0  0
 27 26  2  0  0  0  0
 28 30  1  0  0  0  0
 29 28  2  0  0  0  0
M  END
>  <minimizedAffinity>
-8.10577869

>  <minimizedRMSD>
0.639889181

$$$$
