
 OpenBabel04082420073D

 23 25  0  0  1  0  0  0  0  0999 V2000
   38.2200  -10.8170  -12.9480 N   0  0  0  0  0  0  0  0  0  0  0  0
   37.6810  -10.0400  -12.5650 H   0  0  0  0  0  0  0  0  0  0  0  0
   38.9710  -11.5820  -12.1560 C   0  0  2  0  0  3  0  0  0  0  0  0
   39.6820  -12.6150  -12.6880 N   0  0  0  0  0  0  0  0  0  0  0  0
   40.2480  -13.1810  -12.0550 H   0  0  0  0  0  0  0  0  0  0  0  0
   39.6880  -12.9350  -13.9880 C   0  0  0  0  0  0  0  0  0  0  0  0
   38.9060  -12.1320  -14.7900 C   0  0  0  0  0  0  0  0  0  0  0  0
   38.1870  -11.0930  -14.2680 C   0  0  0  0  0  0  0  0  0  0  0  0
   37.4590  -10.3380  -14.9800 O   0  0  0  0  0  0  0  0  0  0  0  0
   39.8500  -14.9710  -15.4560 C   0  0  0  0  0  2  0  0  0  0  0  0
   40.4810  -14.0580  -14.4810 C   0  0  0  0  0  2  0  0  0  0  0  0
   38.8280  -12.3880  -16.2510 C   0  0  0  0  0  2  0  0  0  0  0  0
   38.5560  -14.1710  -16.4360 S   0  0  0  0  0  0  0  0  0  0  0  0
   39.0250  -11.3070  -10.7270 C   0  0  0  0  0  0  0  0  0  0  0  0
   39.4020  -12.2180   -9.7870 C   0  0  0  0  0  3  0  0  0  0  0  0
   39.4300  -11.8850   -8.4360 C   0  0  0  0  0  3  0  0  0  0  0  0
   39.0840  -10.6430   -8.0050 C   0  0  0  0  0  0  0  0  0  0  0  0
   38.6960   -9.6980   -8.9540 C   0  0  0  0  0  3  0  0  0  0  0  0
   38.6720  -10.0360  -10.2820 C   0  0  0  0  0  3  0  0  0  0  0  0
   39.1330  -10.3430   -6.5520 C   0  0  0  0  0  0  0  0  0  0  0  0
   37.8690  -10.2160   -6.0410 F   0  0  0  0  0  0  0  0  0  0  0  0
   39.8410  -11.3010   -5.8530 F   0  0  0  0  0  0  0  0  0  0  0  0
   39.7890   -9.1420   -6.3540 F   0  0  0  0  0  0  0  0  0  0  0  0
  1  2  1  0  0  0  0
  1  3  1  0  0  0  0
  3 14  1  1  0  0  0
  4  3  1  0  0  0  0
  4  5  1  0  0  0  0
  6  4  1  0  0  0  0
  7  8  1  0  0  0  0
  7  6  2  0  0  0  0
  8  1  1  0  0  0  0
  9  8  2  0  0  0  0
 10 11  1  0  0  0  0
 11  6  1  0  0  0  0
 12  7  1  0  0  0  0
 13 12  1  0  0  0  0
 13 10  1  0  0  0  0
 14 19  2  0  0  0  0
 14 15  1  0  0  0  0
 15 16  2  0  0  0  0
 16 17  1  0  0  0  0
 17 20  1  0  0  0  0
 18 17  2  0  0  0  0
 19 18  1  0  0  0  0
 20 23  1  0  0  0  0
 20 21  1  0  0  0  0
 20 22  1  0  0  0  0
M  END
>  <minimizedAffinity>
-9.17524147

>  <minimizedRMSD>
0.525362551

$$$$
