
 OpenBabel04082420153D

 24 23  0  0  0  0  0  0  0  0999 V2000
   -3.1310    6.7150   14.8800 C   0  0  0  0  0  2  0  0  0  0  0  0
   -3.1580    5.2550   14.5000 C   0  0  0  0  0  2  0  0  0  0  0  0
   -4.0780    4.5950   15.4070 N   0  0  0  0  0  4  0  0  0  0  0  0
   -4.9140    5.1530   15.5840 H   0  0  0  0  0  0  0  0  0  0  0  0
   -3.7230    4.5610   16.3630 H   0  0  0  0  0  0  0  0  0  0  0  0
   -4.3930    3.2890   14.8930 C   0  0  0  0  0  2  0  0  0  0  0  0
   -5.0950    2.5270   16.0170 C   0  0  0  0  0  2  0  0  0  0  0  0
   -4.3300    1.2570   16.2380 C   0  0  0  0  0  2  0  0  0  0  0  0
   -5.2950    0.1430   16.0290 N   0  0  0  0  0  4  0  0  0  0  0  0
   -6.1310    0.2180   16.6090 H   0  0  0  0  0  0  0  0  0  0  0  0
   -5.7650    0.1790   15.1250 H   0  0  0  0  0  0  0  0  0  0  0  0
   -4.7750   -0.7210   16.1800 H   0  0  0  0  0  0  0  0  0  0  0  0
   -1.9820    7.4450   14.1810 C   0  0  0  0  0  2  0  0  0  0  0  0
   -2.0260    8.8690   14.7390 C   0  0  0  0  0  2  0  0  0  0  0  0
   -1.6220    9.8320   13.7590 N   0  0  0  0  0  4  0  0  0  0  0  0
   -0.9430    9.4650   13.0940 H   0  0  0  0  0  0  0  0  0  0  0  0
   -2.3580   10.0510   13.0870 H   0  0  0  0  0  0  0  0  0  0  0  0
   -1.1350   11.0130   14.4890 C   0  0  0  0  0  2  0  0  0  0  0  0
   -1.8730   12.2030   13.9410 C   0  0  0  0  0  2  0  0  0  0  0  0
   -1.1600   13.4770   14.3050 C   0  0  0  0  0  2  0  0  0  0  0  0
   -1.2020   14.3760   13.1230 N   0  0  0  0  0  4  0  0  0  0  0  0
   -0.8280   13.9400   12.2800 H   0  0  0  0  0  0  0  0  0  0  0  0
   -2.1510   14.5380   12.7820 H   0  0  0  0  0  0  0  0  0  0  0  0
   -0.7190   15.2400   13.3700 H   0  0  0  0  0  0  0  0  0  0  0  0
  2  1  1  0  0  0  0
  2  3  1  0  0  0  0
  3  4  1  0  0  0  0
  3  5  1  0  0  0  0
  6  3  1  0  0  0  0
  6  7  1  0  0  0  0
  7  8  1  0  0  0  0
  9 12  1  0  0  0  0
  9  8  1  0  0  0  0
  9 10  1  0  0  0  0
 11  9  1  0  0  0  0
 13 14  1  0  0  0  0
 13  1  1  0  0  0  0
 15 18  1  0  0  0  0
 15 14  1  0  0  0  0
 16 15  1  0  0  0  0
 17 15  1  0  0  0  0
 19 20  1  0  0  0  0
 19 18  1  0  0  0  0
 21 24  1  0  0  0  0
 21 20  1  0  0  0  0
 22 21  1  0  0  0  0
 23 21  1  0  0  0  0
M  END
>  <minimizedAffinity>
-1.98621798

>  <minimizedRMSD>
0.995708704

$$$$
