
 OpenBabel04082420173D

 23 24  0  0  1  0  0  0  0  0999 V2000
   33.0650   23.1030   27.9670 C   0  0  1  0  0  3  0  0  0  0  0  0
   33.5380   23.1510   26.5460 C   0  0  1  0  0  3  0  0  0  0  0  0
   32.4230   22.5050   25.7090 C   0  0  1  0  0  3  0  0  0  0  0  0
   32.6250   22.6610   24.3780 F   0  0  0  0  0  0  0  0  0  0  0  0
   32.4750   21.0380   26.1470 C   0  0  1  0  0  3  0  0  0  0  0  0
   32.1150   20.9940   27.5890 C   0  0  2  0  0  3  0  0  0  0  0  0
   32.5920   21.9230   28.4030 O   0  0  0  0  0  0  0  0  0  0  0  0
   34.0780   23.5630   28.9010 N   0  0  0  0  0  0  0  0  0  0  0  0
   35.3880   23.3500   28.7300 C   0  0  0  0  0  3  0  0  0  0  0  0
   36.3390   23.7890   29.6180 C   0  0  0  0  0  3  0  0  0  0  0  0
   35.9180   24.4830   30.7400 C   0  0  1  0  0  3  0  0  0  0  0  0
   34.5980   24.6930   30.9040 N   0  0  0  0  0  0  0  0  0  0  0  0
   36.8490   24.9700   31.7080 N   0  0  0  0  0  1  0  0  0  0  0  0
   33.7190   24.2410   30.0050 C   0  0  0  0  0  0  0  0  0  0  0  0
   34.2670   25.2020   31.7230 H   0  0  0  0  0  0  0  0  0  0  0  0
   32.4790   24.4680   30.2090 O   0  0  0  0  0  0  0  0  0  0  0  0
   33.6810   24.4360   26.0710 O   0  0  0  0  0  0  0  0  0  0  0  0
   33.9810   24.4670   25.1700 H   0  0  0  0  0  0  0  0  0  0  0  0
   32.5290   19.6120   28.1170 C   0  0  0  0  0  2  0  0  0  0  0  0
   31.3970   18.7970   27.9560 O   0  0  0  0  0  0  0  0  0  0  0  0
   31.6540   17.9420   28.2820 H   0  0  0  0  0  0  0  0  0  0  0  0
   31.6170   20.3360   25.3340 O   0  0  0  0  0  0  0  0  0  0  0  0
   31.6490   19.4260   25.6060 H   0  0  0  0  0  0  0  0  0  0  0  0
  1  7  1  0  0  0  0
  1  8  1  1  0  0  0
  2 17  1  6  0  0  0
  2  1  1  0  0  0  0
  3  4  1  6  0  0  0
  3  5  1  0  0  0  0
  3  2  1  0  0  0  0
  5 22  1  6  0  0  0
  5  6  1  0  0  0  0
  6 19  1  1  0  0  0
  6  7  1  0  0  0  0
  8 14  1  0  0  0  0
  9  8  1  0  0  0  0
  9 10  2  0  0  0  0
 10 11  1  0  0  0  0
 11 12  1  0  0  0  0
 11 13  1  1  0  0  0
 12 15  1  0  0  0  0
 14 16  2  0  0  0  0
 14 12  1  0  0  0  0
 18 17  1  0  0  0  0
 20 19  1  0  0  0  0
 20 21  1  0  0  0  0
 22 23  1  0  0  0  0
M  END
>  <minimizedAffinity>
-7.89398003

>  <minimizedRMSD>
0.577814639

$$$$
