
 OpenBabel04082420173D

 14 14  0  0  0  0  0  0  0  0999 V2000
    4.5220   -6.2900    6.4820 C   0  0  0  0  0  3  0  0  0  0  0  0
    5.5310   -6.8740    7.2490 C   0  0  0  0  0  3  0  0  0  0  0  0
    5.4180   -6.8570    8.6230 C   0  0  0  0  0  0  0  0  0  0  0  0
    4.3090   -6.2640    9.2190 C   0  0  0  0  0  3  0  0  0  0  0  0
    3.4280   -5.7050    7.0530 C   0  0  0  0  0  0  0  0  0  0  0  0
    3.3300   -5.6960    8.4220 C   0  0  0  0  0  3  0  0  0  0  0  0
    2.1710   -4.9780    6.1020 S   0  0  0  0  0  0  0  0  0  0  0  0
    2.0240   -5.7670    4.8370 O   0  0  0  0  0  0  0  0  0  0  0  0
    0.8720   -4.9330    6.8290 O   0  0  0  0  0  0  0  0  0  0  0  0
    2.6450   -3.3770    5.6770 N   0  0  0  0  0  0  0  0  0  0  0  0
    2.7950   -3.0390    4.7260 H   0  0  0  0  0  0  0  0  0  0  0  0
    2.7450   -2.8400    6.5390 H   0  0  0  0  0  0  0  0  0  0  0  0
    6.4040   -7.4280    9.3840 O   0  0  0  0  0  0  0  0  0  0  0  0
    7.4200   -8.2290    8.7910 C   0  0  0  0  0  1  0  0  0  0  0  0
  1  5  2  0  0  0  0
  1  2  1  0  0  0  0
  2  3  2  0  0  0  0
  3  4  1  0  0  0  0
  3 13  1  0  0  0  0
  5  6  1  0  0  0  0
  6  4  2  0  0  0  0
  7  9  2  0  0  0  0
  7  5  1  0  0  0  0
  8  7  2  0  0  0  0
 10  7  1  0  0  0  0
 10 12  1  0  0  0  0
 11 10  1  0  0  0  0
 14 13  1  0  0  0  0
M  END
>  <minimizedAffinity>
-5.74796057

>  <minimizedRMSD>
1.31546366

$$$$
