
 OpenBabel04082419563D

 25 26  0  0  1  0  0  0  0  0999 V2000
   -9.0270   -2.9520  -31.0470 C   0  0  0  0  0  0  0  0  0  0  0  0
   -8.5050   -4.1920  -30.7440 C   0  0  0  0  0  3  0  0  0  0  0  0
   -7.1620   -4.4140  -30.6350 C   0  0  0  0  0  3  0  0  0  0  0  0
   -6.2290   -3.3820  -30.8300 C   0  0  0  0  0  0  0  0  0  0  0  0
   -6.7460   -2.1400  -31.1320 C   0  0  0  0  0  3  0  0  0  0  0  0
   -8.1110   -1.9490  -31.2340 C   0  0  0  0  0  3  0  0  0  0  0  0
  -10.4890   -2.7590  -31.1530 C   0  0  0  0  0  2  0  0  0  0  0  0
  -11.2150   -3.0020  -29.8630 C   0  0  2  0  0  3  0  0  0  0  0  0
  -11.3060   -4.4780  -29.7030 N   0  0  0  0  0  4  0  0  0  0  0  0
  -11.7350   -4.9460  -30.5010 H   0  0  0  0  0  0  0  0  0  0  0  0
  -10.4020   -4.9460  -29.7510 H   0  0  0  0  0  0  0  0  0  0  0  0
  -11.8000   -4.6430  -28.8250 H   0  0  0  0  0  0  0  0  0  0  0  0
  -12.5710   -2.4570  -29.8290 C   0  0  0  0  0  0  0  0  0  0  0  0
  -13.2440   -2.2850  -30.8590 O   0  0  0  0  0  0  0  0  0  0  0  0
  -13.1640   -2.1030  -28.5830 N   0  0  0  0  0  0  0  0  0  0  0  0
  -14.3120   -1.2040  -28.5030 C   0  0  0  0  0  1  0  0  0  0  0  0
  -12.7760   -2.4900  -27.7220 H   0  0  0  0  0  0  0  0  0  0  0  0
   -4.9150   -3.6150  -30.7180 O   0  0  0  0  0  0  0  0  0  0  0  0
   -4.0590   -4.6520  -30.6080 C   0  0  0  0  0  2  0  0  0  0  0  0
   -2.6340   -4.4050  -30.3830 C   0  0  0  0  0  0  0  0  0  0  0  0
   -2.1810   -3.2170  -29.9000 C   0  0  0  0  0  3  0  0  0  0  0  0
   -0.8170   -2.9810  -29.6950 C   0  0  0  0  0  3  0  0  0  0  0  0
    0.1140   -3.9540  -29.9790 C   0  0  0  0  0  3  0  0  0  0  0  0
   -0.3170   -5.1630  -30.4670 C   0  0  0  0  0  3  0  0  0  0  0  0
   -1.6550   -5.3670  -30.6590 C   0  0  0  0  0  3  0  0  0  0  0  0
  1  2  1  0  0  0  0
  2  3  2  0  0  0  0
  4 18  1  0  0  0  0
  4  3  1  0  0  0  0
  5  4  2  0  0  0  0
  6  5  1  0  0  0  0
  6  1  2  0  0  0  0
  7  1  1  0  0  0  0
  8  7  1  6  0  0  0
  8 13  1  0  0  0  0
  8  9  1  0  0  0  0
  9 12  1  0  0  0  0
 10  9  1  0  0  0  0
 11  9  1  0  0  0  0
 13 15  1  0  0  0  0
 14 13  2  0  0  0  0
 15 16  1  0  0  0  0
 15 17  1  0  0  0  0
 18 19  1  0  0  0  0
 19 20  1  0  0  0  0
 20 21  1  0  0  0  0
 21 22  2  0  0  0  0
 23 22  1  0  0  0  0
 24 23  2  0  0  0  0
 25 24  1  0  0  0  0
 25 20  2  0  0  0  0
M  END
>  <minimizedAffinity>
-4.68278503

>  <minimizedRMSD>
0.620173633

$$$$
