
 OpenBabel04082419543D

 10  9  0  0  0  0  0  0  0  0999 V2000
   -5.9120   -7.2050  -17.8910 C   0  0  0  0  0  2  0  0  0  0  0  0
   -4.5900   -6.7280  -18.5230 C   0  0  0  0  0  2  0  0  0  0  0  0
   -3.7180   -6.0600  -17.5660 C   0  0  0  0  0  0  0  0  0  0  0  0
   -2.4410   -5.6800  -17.9170 O   0  0  0  0  0  0  0  0  0  0  0  0
   -4.1200   -5.8230  -16.4090 O   0  0  0  0  0  1  0  0  0  0  0  0
   -6.9600   -7.4040  -18.8990 C   0  0  0  0  0  2  0  0  0  0  0  0
   -8.3330   -7.5100  -18.3950 C   0  0  0  0  0  3  0  0  0  0  0  0
   -9.2570   -8.5920  -18.6760 C   0  0  0  0  0  3  0  0  0  0  0  0
  -10.6650   -8.5020  -18.1910 C   0  0  0  0  0  2  0  0  0  0  0  0
  -11.4820   -9.6450  -18.8810 C   0  0  0  0  0  1  0  0  0  0  0  0
  2  1  1  0  0  0  0
  2  3  1  0  0  0  0
  3  5  1  0  0  0  0
  4  3  2  0  0  0  0
  6  7  1  0  0  0  0
  6  1  1  0  0  0  0
  8  7  2  0  0  0  0
  8  9  1  0  0  0  0
 10  9  1  0  0  0  0
M  END
>  <minimizedAffinity>
-2.26380539

>  <minimizedRMSD>
0.574857593

$$$$
