
 OpenBabel04082420013D

 46 50  0  0  1  0  0  0  0  0999 V2000
   -2.4620   18.5610   14.9660 C   0  0  0  0  0  2  0  0  0  0  0  0
   -2.4480   17.6970   13.9530 C   0  0  0  0  0  2  0  0  0  0  0  0
   -2.6970   20.0090   14.7460 C   0  0  2  0  0  3  0  0  0  0  0  0
   -3.4880   20.5190   15.9140 C   0  0  2  0  0  3  0  0  0  0  0  0
   -4.8780   20.6460   15.2640 C   0  0  2  0  0  3  0  0  0  0  0  0
   -4.4050   21.1400   13.8880 C   0  0  1  0  0  3  0  0  0  0  0  0
   -3.4370   20.2230   13.5870 O   0  0  0  0  0  0  0  0  0  0  0  0
   -3.1600   21.8550   16.2500 O   0  0  0  0  0  0  0  0  0  0  0  0
   -2.3020   21.7770   16.6510 H   0  0  0  0  0  0  0  0  0  0  0  0
   -5.6410   21.5930   15.9180 O   0  0  0  0  0  0  0  0  0  0  0  0
   -5.9330   21.2880   16.7680 H   0  0  0  0  0  0  0  0  0  0  0  0
   -5.4790   21.1580   12.9280 N   0  0  2  0  0  0  0  0  0  0  0  0
   -6.4300   20.2300   12.6950 C   0  0  0  0  0  2  0  0  0  0  0  0
   -7.2240   20.6730   11.7030 N   0  0  0  0  0  0  0  0  0  0  0  0
   -6.8060   21.8800   11.2820 C   0  0  0  0  0  0  0  0  0  0  0  0
   -8.0260   20.1680   11.3260 H   0  0  0  0  0  0  0  0  0  0  0  0
   -5.6950   22.1710   12.0730 C   0  0  1  0  0  3  0  0  0  0  0  0
   -7.2350   22.7680   10.3220 C   0  0  0  0  0  0  0  0  0  0  0  0
   -5.0920   23.3500   11.8340 N   0  0  0  0  0  0  0  0  0  0  0  0
   -5.4890   24.2330   10.9060 C   0  0  0  0  0  2  0  0  0  0  0  0
   -4.2760   23.5890   12.3980 H   0  0  0  0  0  0  0  0  0  0  0  0
   -6.5650   23.9190   10.1580 N   0  0  0  0  0  0  0  0  0  0  0  0
   -6.8820   24.5790    9.4470 H   0  0  0  0  0  0  0  0  0  0  0  0
   -8.4060   22.4990    9.4620 C   0  0  0  0  0  1  0  0  0  0  0  0
   -1.2450   16.8860   13.6230 C   0  0  0  0  0  2  0  0  0  0  0  0
   -1.6840   15.5730   13.2050 N   0  0  0  0  0  0  0  0  0  0  0  0
   -1.8960   14.5690   14.1660 C   0  0  0  0  0  0  0  0  0  0  0  0
   -3.0430   14.3740   14.6170 O   0  0  0  0  0  0  0  0  0  0  0  0
   -1.8380   15.3760   12.2160 H   0  0  0  0  0  0  0  0  0  0  0  0
   -0.8020   13.7460   14.6530 C   0  0  0  0  0  0  0  0  0  0  0  0
   -0.9640   12.7570   15.6030 C   0  0  0  0  0  3  0  0  0  0  0  0
    0.0880   11.9740   16.0630 C   0  0  0  0  0  0  0  0  0  0  0  0
    1.3350   12.2110   15.5350 C   0  0  0  0  0  3  0  0  0  0  0  0
    1.5250   13.1940   14.5850 C   0  0  0  0  0  0  0  0  0  0  0  0
    0.4580   13.9520   14.1520 C   0  0  0  0  0  0  0  0  0  0  0  0
   -0.0730   10.9290   17.0650 C   0  0  0  0  0  0  0  0  0  0  0  0
    0.9000    9.9630   17.2480 C   0  0  0  0  0  3  0  0  0  0  0  0
    0.7630    8.9670   18.1930 C   0  0  0  0  0  3  0  0  0  0  0  0
   -0.3720    8.9010   19.0030 C   0  0  0  0  0  0  0  0  0  0  0  0
   -1.3410    9.8570   18.8260 C   0  0  0  0  0  3  0  0  0  0  0  0
   -0.5340    7.9360   19.9370 F   0  0  0  0  0  0  0  0  0  0  0  0
   -1.1900   10.8540   17.8710 C   0  0  0  0  0  3  0  0  0  0  0  0
    2.7950   13.4170   14.0650 O   0  0  0  0  0  0  0  0  0  0  0  0
    2.9250   14.0920   13.4110 H   0  0  0  0  0  0  0  0  0  0  0  0
    0.7210   14.9310   13.1850 O   0  0  0  0  0  0  0  0  0  0  0  0
    1.5930   15.0730   12.8380 H   0  0  0  0  0  0  0  0  0  0  0  0
  2  1  1  0  0  0  0
  3  1  1  1  0  0  0
  3  4  1  0  0  0  0
  4  8  1  6  0  0  0
  5  4  1  0  0  0  0
  5 10  1  1  0  0  0
  6  7  1  6  0  0  0
  6  5  1  0  0  0  0
  7  3  1  0  0  0  0
  8  9  1  0  0  0  0
 10 11  1  0  0  0  0
 12 13  1  6  0  0  0
 12  6  1  0  0  0  0
 14 13  1  0  0  0  0
 15 14  1  0  0  0  0
 16 14  1  0  0  0  0
 17 15  1  1  0  0  0
 17 12  1  0  0  0  0
 18 15  2  0  0  0  0
 19 17  1  0  0  0  0
 19 21  1  0  0  0  0
 20 19  1  0  0  0  0
 22 18  1  0  0  0  0
 22 20  1  0  0  0  0
 23 22  1  0  0  0  0
 24 18  1  0  0  0  0
 25  2  1  0  0  0  0
 26 25  1  0  0  0  0
 26 27  1  0  0  0  0
 27 28  2  0  0  0  0
 27 30  1  0  0  0  0
 29 26  1  0  0  0  0
 30 31  1  0  0  0  0
 31 32  2  0  0  0  0
 32 36  1  0  0  0  0
 33 32  1  0  0  0  0
 34 33  2  0  0  0  0
 35 34  1  0  0  0  0
 35 30  2  0  0  0  0
 36 37  2  0  0  0  0
 36 42  1  0  0  0  0
 37 38  1  0  0  0  0
 38 39  2  0  0  0  0
 39 41  1  0  0  0  0
 40 39  1  0  0  0  0
 42 40  2  0  0  0  0
 43 34  1  0  0  0  0
 44 43  1  0  0  0  0
 45 35  1  0  0  0  0
 46 45  1  0  0  0  0
M  END
>  <minimizedAffinity>
-10.3928642

>  <minimizedRMSD>
0.978428304

$$$$
