
 OpenBabel04082420143D

 23 23  0  0  0  0  0  0  0  0999 V2000
   -1.5850   -5.1920   -3.5930 N   0  0  0  0  0  0  0  0  0  0  0  0
   -1.2190   -6.2290   -4.8730 S   0  0  0  0  0  0  0  0  0  0  0  0
    0.1510   -6.0300   -5.4560 O   0  0  0  0  0  0  0  0  0  0  0  0
   -1.2710   -7.6930   -4.4650 O   0  0  0  0  0  0  0  0  0  0  0  0
   -2.3600   -6.0880   -6.2090 C   0  0  0  0  0  0  0  0  0  0  0  0
   -3.4090   -6.9800   -6.2240 C   0  0  0  0  0  3  0  0  0  0  0  0
   -4.3730   -6.9790   -7.2120 C   0  0  0  0  0  3  0  0  0  0  0  0
   -4.2250   -6.0120   -8.2080 C   0  0  0  0  0  0  0  0  0  0  0  0
   -3.1780   -5.1220   -8.1920 C   0  0  0  0  0  3  0  0  0  0  0  0
   -2.2350   -5.1520   -7.1920 C   0  0  0  0  0  3  0  0  0  0  0  0
   -5.1750   -5.9960   -9.1990 O   0  0  0  0  0  0  0  0  0  0  0  0
   -5.6960   -7.2270   -9.6590 C   0  0  0  0  0  1  0  0  0  0  0  0
   -1.2150   -3.8570   -3.7040 C   0  0  0  0  0  2  0  0  0  0  0  0
   -2.1150   -2.9550   -4.4630 C   0  0  0  0  0  0  0  0  0  0  0  0
   -3.3450   -3.2250   -4.4700 O   0  0  0  0  0  0  0  0  0  0  0  0
   -1.6020   -1.8330   -5.1520 N   0  0  0  0  0  0  0  0  0  0  0  0
   -0.6010   -1.6360   -5.1680 H   0  0  0  0  0  0  0  0  0  0  0  0
   -2.4850   -1.0300   -5.7890 O   0  0  0  0  0  0  0  0  0  0  0  0
   -2.1390   -0.2750   -6.2530 H   0  0  0  0  0  0  0  0  0  0  0  0
   -1.7200   -5.8450   -2.3740 C   0  0  0  0  0  2  0  0  0  0  0  0
   -3.1040   -5.8310   -1.7690 C   0  0  0  0  0  2  0  0  0  0  0  0
   -3.1470   -5.3910   -0.4770 O   0  0  0  0  0  0  0  0  0  0  0  0
   -4.0180   -5.3820   -0.0970 H   0  0  0  0  0  0  0  0  0  0  0  0
  1 20  1  0  0  0  0
  2  4  2  0  0  0  0
  2  1  1  0  0  0  0
  3  2  2  0  0  0  0
  5  2  1  0  0  0  0
  6  5  1  0  0  0  0
  7  6  2  0  0  0  0
  8  9  2  0  0  0  0
  8  7  1  0  0  0  0
  9 10  1  0  0  0  0
 10  5  2  0  0  0  0
 11  8  1  0  0  0  0
 12 11  1  0  0  0  0
 13  1  1  0  0  0  0
 14 13  1  0  0  0  0
 15 14  2  0  0  0  0
 16 14  1  0  0  0  0
 17 16  1  0  0  0  0
 18 16  1  0  0  0  0
 19 18  1  0  0  0  0
 20 21  1  0  0  0  0
 21 22  1  0  0  0  0
 22 23  1  0  0  0  0
M  END
>  <minimizedAffinity>
-7.34141445

>  <minimizedRMSD>
0.3425363

$$$$
