
 OpenBabel04082419583D

 45 49  0  0  1  0  0  0  0  0999 V2000
   19.9770   28.9470   15.6670 C   0  0  1  0  0  3  0  0  0  0  0  0
   19.3210   29.9260   16.5590 C   0  0  0  0  0  2  0  0  0  0  0  0
   19.3830   31.2290   15.9580 N   0  0  0  0  0  0  0  0  0  0  0  0
   17.9320   32.0080   15.6670 S   0  0  0  0  0  0  0  0  0  0  0  0
   17.9960   32.5570   14.2380 O   0  0  0  0  0  0  0  0  0  0  0  0
   16.7380   31.0820   15.6440 O   0  0  0  0  0  0  0  0  0  0  0  0
   17.6440   33.3530   16.6920 C   0  0  0  0  0  0  0  0  0  0  0  0
   16.3440   33.8790   16.7890 C   0  0  0  0  0  3  0  0  0  0  0  0
   16.0990   34.9420   17.5850 C   0  0  0  0  0  0  0  0  0  0  0  0
   14.6170   35.9180   17.9980 S   0  0  0  0  0  0  0  0  0  0  0  0
   17.0700   35.6080   18.3660 C   0  0  0  0  0  0  0  0  0  0  0  0
   15.5290   37.0880   19.1720 C   0  0  0  0  0  2  0  0  0  0  0  0
   16.6460   36.5900   19.0510 N   0  0  0  0  0  0  0  0  0  0  0  0
   17.3670   37.0500   19.6060 H   0  0  0  0  0  0  0  0  0  0  0  0
   18.3630   35.0700   18.2590 C   0  0  0  0  0  3  0  0  0  0  0  0
   18.5860   33.9950   17.4480 C   0  0  0  0  0  3  0  0  0  0  0  0
   20.5790   31.7100   15.4680 C   0  0  0  0  0  2  0  0  0  0  0  0
   21.8000   31.6290   16.3730 C   0  0  0  0  0  3  0  0  0  0  0  0
   23.0060   31.9810   15.5750 C   0  0  0  0  0  2  0  0  0  0  0  0
   22.8040   32.2020   14.1170 C   0  0  0  0  0  1  0  0  0  0  0  0
   21.4880   32.5800   17.5060 C   0  0  0  0  0  2  0  0  0  0  0  0
   22.3950   33.7480   17.6330 C   0  0  0  0  0  1  0  0  0  0  0  0
   20.2770   27.7660   16.3210 O   0  0  0  0  0  0  0  0  0  0  0  0
   20.6990   27.1370   15.7470 H   0  0  0  0  0  0  0  0  0  0  0  0
   19.5040   28.8090   14.2690 C   0  0  1  0  0  3  0  0  0  0  0  0
   20.4310   27.8030   13.6690 N   0  0  0  0  0  0  0  0  0  0  0  0
   21.6590   28.1700   13.1160 C   0  0  0  0  0  0  0  0  0  0  0  0
   21.8040   29.3500   12.7050 O   0  0  0  0  0  0  0  0  0  0  0  0
   20.1590   26.8210   13.6620 H   0  0  0  0  0  0  0  0  0  0  0  0
   22.7500   27.3210   12.9820 O   0  0  0  0  0  0  0  0  0  0  0  0
   23.6270   27.3800   11.8760 C   0  0  1  0  0  3  0  0  0  0  0  0
   24.9210   26.6770   12.1140 C   0  0  0  0  0  2  0  0  0  0  0  0
   24.7640   25.3620   11.6860 O   0  0  0  0  0  0  0  0  0  0  0  0
   23.8920   25.3740   10.6150 C   0  0  1  0  0  3  0  0  0  0  0  0
   23.0580   24.2720   10.7260 O   0  0  0  0  0  0  0  0  0  0  0  0
   23.0400   26.5940   10.7120 C   0  0  1  0  0  3  0  0  0  0  0  0
   21.9560   24.6500   11.4810 C   0  0  0  0  0  2  0  0  0  0  0  0
   21.6790   26.0510   10.9770 C   0  0  0  0  0  2  0  0  0  0  0  0
   18.1130   28.3590   14.0280 C   0  0  0  0  0  2  0  0  0  0  0  0
   17.8590   27.8300   12.6880 C   0  0  0  0  0  0  0  0  0  0  0  0
   17.5090   28.6730   11.6230 C   0  0  0  0  0  3  0  0  0  0  0  0
   17.2780   28.1310   10.3790 C   0  0  0  0  0  3  0  0  0  0  0  0
   17.3890   26.7600   10.1780 C   0  0  0  0  0  3  0  0  0  0  0  0
   17.7280   25.9130   11.1930 C   0  0  0  0  0  3  0  0  0  0  0  0
   17.9590   26.4530   12.4380 C   0  0  0  0  0  3  0  0  0  0  0  0
  1 23  1  0  0  0  0
  1  2  1  1  0  0  0
  3  2  1  0  0  0  0
  4  3  1  0  0  0  0
  4  7  1  0  0  0  0
  5  4  2  0  0  0  0
  6  4  2  0  0  0  0
  7  8  2  0  0  0  0
  7 16  1  0  0  0  0
  8  9  1  0  0  0  0
  9 10  1  0  0  0  0
  9 11  2  0  0  0  0
 10 12  1  0  0  0  0
 11 13  1  0  0  0  0
 13 12  1  0  0  0  0
 13 14  1  0  0  0  0
 15 11  1  0  0  0  0
 16 15  2  0  0  0  0
 17  3  1  0  0  0  0
 17 18  1  0  0  0  0
 18 21  1  0  0  0  0
 19 18  1  0  0  0  0
 20 19  1  0  0  0  0
 21 22  1  0  0  0  0
 24 23  1  0  0  0  0
 25 39  1  1  0  0  0
 25  1  1  0  0  0  0
 26 25  1  0  0  0  0
 27 26  1  0  0  0  0
 28 27  2  0  0  0  0
 29 26  1  0  0  0  0
 30 27  1  0  0  0  0
 31 32  1  0  0  0  0
 31 30  1  1  0  0  0
 33 32  1  0  0  0  0
 34 36  1  0  0  0  0
 34 35  1  1  0  0  0
 34 33  1  0  0  0  0
 35 37  1  0  0  0  0
 36 38  1  1  0  0  0
 36 31  1  0  0  0  0
 38 37  1  0  0  0  0
 40 39  1  0  0  0  0
 41 40  2  0  0  0  0
 42 41  1  0  0  0  0
 43 42  2  0  0  0  0
 43 44  1  0  0  0  0
 44 45  2  0  0  0  0
 45 40  1  0  0  0  0
M  END
>  <minimizedAffinity>
-11.0279675

>  <minimizedRMSD>
0.812376976

$$$$
