
 OpenBabel04082420113D

 41 44  0  0  1  0  0  0  0  0999 V2000
   20.4000  -30.8980   13.3390 C   0  0  1  0  0  3  0  0  0  0  0  0
   19.0370  -31.5870   13.2820 C   0  0  2  0  0  3  0  0  0  0  0  0
   18.1470  -30.3420   13.1830 C   0  0  1  0  0  3  0  0  0  0  0  0
   18.8060  -29.5840   12.2510 O   0  0  0  0  0  0  0  0  0  0  0  0
   20.1710  -29.7180   12.4500 C   0  0  2  0  0  3  0  0  0  0  0  0
   20.9110  -29.7880   11.1600 C   0  0  0  0  0  2  0  0  0  0  0  0
   20.3860  -29.3660   10.0380 C   0  0  0  0  0  2  0  0  0  0  0  0
   20.4890  -30.0620    8.7520 C   0  0  0  0  0  2  0  0  0  0  0  0
   21.2930  -29.4080    7.7470 N   0  0  0  0  0  0  0  0  0  0  0  0
   22.4390  -29.9700    7.1690 C   0  0  0  0  0  0  0  0  0  0  0  0
   22.4990  -31.2580    7.2750 O   0  0  0  0  0  0  0  0  0  0  0  0
   21.0090  -28.4780    7.4390 H   0  0  0  0  0  0  0  0  0  0  0  0
   23.5340  -29.3120    6.4870 C   0  0  0  0  0  0  0  0  0  0  0  0
   23.6940  -27.9670    6.5240 C   0  0  0  0  0  0  0  0  0  0  0  0
   24.7640  -27.3720    5.8530 C   0  0  0  0  0  0  0  0  0  0  0  0
   25.6370  -28.1450    5.1660 C   0  0  0  0  0  3  0  0  0  0  0  0
   25.5160  -29.5170    5.0990 C   0  0  0  0  0  0  0  0  0  0  0  0
   24.4580  -30.0800    5.7660 C   0  0  0  0  0  3  0  0  0  0  0  0
   22.8220  -27.0920    7.2220 O   0  0  0  0  0  0  0  0  0  0  0  0
   22.9340  -26.1490    7.2470 H   0  0  0  0  0  0  0  0  0  0  0  0
   24.9050  -25.9730    5.9080 O   0  0  0  0  0  0  0  0  0  0  0  0
   25.6320  -25.5680    5.4500 H   0  0  0  0  0  0  0  0  0  0  0  0
   26.4540  -30.3060    4.3650 N   0  0  0  0  0  0  0  0  0  0  0  0
   26.1410  -31.5680    3.9230 O   0  0  0  0  0  0  0  0  0  0  0  0
   27.5800  -29.8750    4.1060 O   0  0  0  0  0  0  0  0  0  0  0  0
   20.5180  -30.4200   14.6560 O   0  0  0  0  0  0  0  0  0  0  0  0
   21.3650  -29.9910   14.6910 H   0  0  0  0  0  0  0  0  0  0  0  0
   18.7740  -32.2750   14.4630 O   0  0  0  0  0  0  0  0  0  0  0  0
   17.9270  -32.7030   14.4280 H   0  0  0  0  0  0  0  0  0  0  0  0
   16.8210  -30.7010   12.7930 N   0  0  1  0  0  0  0  0  0  0  0  0
   16.5090  -31.4860   11.7530 C   0  0  0  0  0  2  0  0  0  0  0  0
   15.1760  -31.6160   11.6720 N   0  0  0  0  0  0  0  0  0  0  0  0
   14.6100  -30.9010   12.6820 C   0  0  0  0  0  0  0  0  0  0  0  0
   14.6710  -32.1600   10.9720 H   0  0  0  0  0  0  0  0  0  0  0  0
   15.6600  -30.3390   13.3680 C   0  0  2  0  0  3  0  0  0  0  0  0
   13.3270  -30.6690   13.0890 C   0  0  0  0  0  3  0  0  0  0  0  0
   15.3960  -29.5600   14.4410 N   0  0  0  0  0  0  0  0  0  0  0  0
   14.1300  -29.3530   14.8120 C   0  0  0  0  0  2  0  0  0  0  0  0
   16.1600  -29.1330   14.9650 H   0  0  0  0  0  0  0  0  0  0  0  0
   13.0930  -29.8920   14.1580 N   0  0  0  0  0  0  0  0  0  0  0  0
   12.1390  -29.7140   14.4690 H   0  0  0  0  0  0  0  0  0  0  0  0
  1 26  1  1  0  0  0
  2  1  1  0  0  0  0
  2 28  1  1  0  0  0
  3  4  1  6  0  0  0
  3  2  1  0  0  0  0
  4  5  1  0  0  0  0
  5  6  1  6  0  0  0
  5  1  1  0  0  0  0
  7  6  1  0  0  0  0
  8  7  1  0  0  0  0
  9  8  1  0  0  0  0
 10 11  2  0  0  0  0
 10  9  1  0  0  0  0
 12  9  1  0  0  0  0
 13 14  1  0  0  0  0
 13 10  1  0  0  0  0
 14 19  1  0  0  0  0
 15 21  1  0  0  0  0
 15 14  2  0  0  0  0
 16 15  1  0  0  0  0
 17 16  2  0  0  0  0
 17 18  1  0  0  0  0
 18 13  2  0  0  0  0
 19 20  1  0  0  0  0
 22 21  1  0  0  0  0
 23 17  1  0  0  0  0
 24 23  2  0  0  0  0
 25 23  2  0  0  0  0
 26 27  1  0  0  0  0
 29 28  1  0  0  0  0
 30 31  1  1  0  0  0
 30  3  1  0  0  0  0
 30 35  1  0  0  0  0
 32 31  1  0  0  0  0
 32 33  1  0  0  0  0
 33 36  2  0  0  0  0
 34 32  1  0  0  0  0
 35 33  1  6  0  0  0
 35 37  1  0  0  0  0
 36 40  1  0  0  0  0
 37 38  1  0  0  0  0
 37 39  1  0  0  0  0
 40 41  1  0  0  0  0
 40 38  1  0  0  0  0
M  END
>  <minimizedAffinity>
-9.37329197

>  <minimizedRMSD>
0.471282065

$$$$
