
 OpenBabel04082420183D

 39 41  0  0  1  0  0  0  0  0999 V2000
  -19.7210   30.7160   10.0260 C   0  0  0  0  0  3  0  0  0  0  0  0
  -20.8440   30.4320    9.4020 C   0  0  0  0  0  3  0  0  0  0  0  0
  -19.4920   30.4500   11.4430 C   0  0  2  0  0  3  0  0  0  0  0  0
  -19.2140   31.7310   12.2420 C   0  0  2  0  0  3  0  0  0  0  0  0
  -18.6710   31.1000   13.5170 C   0  0  2  0  0  3  0  0  0  0  0  0
  -17.9420   29.9120   12.9660 C   0  0  1  0  0  3  0  0  0  0  0  0
  -18.3290   29.7090   11.6720 O   0  0  0  0  0  0  0  0  0  0  0  0
  -20.3270   32.4990   12.4440 O   0  0  0  0  0  0  0  0  0  0  0  0
  -20.6650   32.8930   11.6490 H   0  0  0  0  0  0  0  0  0  0  0  0
  -19.7660   30.6090   14.2520 O   0  0  0  0  0  0  0  0  0  0  0  0
  -19.4270   30.2150   15.0480 H   0  0  0  0  0  0  0  0  0  0  0  0
  -16.4960   30.1140   13.0840 N   0  0  0  0  0  0  0  0  0  0  0  0
  -15.7810   31.2130   12.7810 C   0  0  0  0  0  2  0  0  0  0  0  0
  -14.4720   31.0150   13.0260 N   0  0  0  0  0  0  0  0  0  0  0  0
  -14.3280   29.7650   13.4970 C   0  0  0  0  0  0  0  0  0  0  0  0
  -13.7230   31.6920   12.8810 H   0  0  0  0  0  0  0  0  0  0  0  0
  -15.5750   29.2180   13.5300 C   0  0  0  0  0  3  0  0  0  0  0  0
  -13.0090   29.1580   13.8900 C   0  0  0  0  0  0  0  0  0  0  0  0
  -12.0190   29.7920   13.1430 F   0  0  0  0  0  0  0  0  0  0  0  0
  -12.7560   29.3480   15.2180 F   0  0  0  0  0  0  0  0  0  0  0  0
  -12.9910   27.8120   13.5720 F   0  0  0  0  0  0  0  0  0  0  0  0
  -20.9660   30.2970    7.9380 C   0  0  0  0  0  2  0  0  0  0  0  0
  -22.1160   29.5100    7.5470 N   0  0  0  0  0  0  0  0  0  0  0  0
  -23.0170   30.0250    6.5990 C   0  0  0  0  0  0  0  0  0  0  0  0
  -22.9020   31.2190    6.2310 O   0  0  0  0  0  0  0  0  0  0  0  0
  -22.2720   28.5890    7.9580 H   0  0  0  0  0  0  0  0  0  0  0  0
  -24.0860   29.2280    6.0200 C   0  0  0  0  0  0  0  0  0  0  0  0
  -24.1060   27.8400    6.1900 C   0  0  0  0  0  0  0  0  0  0  0  0
  -25.0830   27.0290    5.6710 C   0  0  0  0  0  0  0  0  0  0  0  0
  -26.1020   27.5850    4.9450 C   0  0  0  0  0  3  0  0  0  0  0  0
  -26.1180   28.9410    4.7550 C   0  0  0  0  0  0  0  0  0  0  0  0
  -25.1240   29.7530    5.2840 C   0  0  0  0  0  3  0  0  0  0  0  0
  -23.0720   27.2820    6.9260 O   0  0  0  0  0  0  0  0  0  0  0  0
  -23.0850   26.3390    7.0420 H   0  0  0  0  0  0  0  0  0  0  0  0
  -25.0450   25.6420    5.8790 O   0  0  0  0  0  0  0  0  0  0  0  0
  -25.7220   25.0800    5.5190 H   0  0  0  0  0  0  0  0  0  0  0  0
  -27.1490   29.5750    4.0100 N   0  0  0  0  0  0  0  0  0  0  0  0
  -27.4450   30.8790    4.2940 O   0  0  0  0  0  0  0  0  0  0  0  0
  -27.7850   28.9890    3.1180 O   0  0  0  0  0  0  0  0  0  0  0  0
  2  1  2  0  0  0  0
  3  1  1  6  0  0  0
  3  7  1  0  0  0  0
  3  4  1  0  0  0  0
  4  8  1  1  0  0  0
  4  5  1  0  0  0  0
  5 10  1  1  0  0  0
  6 12  1  6  0  0  0
  6  5  1  0  0  0  0
  7  6  1  0  0  0  0
  9  8  1  0  0  0  0
 10 11  1  0  0  0  0
 12 17  1  0  0  0  0
 13 14  1  0  0  0  0
 13 12  1  0  0  0  0
 14 15  1  0  0  0  0
 15 17  2  0  0  0  0
 15 18  1  0  0  0  0
 16 14  1  0  0  0  0
 18 20  1  0  0  0  0
 19 18  1  0  0  0  0
 21 18  1  0  0  0  0
 22  2  1  0  0  0  0
 23 22  1  0  0  0  0
 23 26  1  0  0  0  0
 24 23  1  0  0  0  0
 25 24  2  0  0  0  0
 27 28  1  0  0  0  0
 27 24  1  0  0  0  0
 28 33  1  0  0  0  0
 29 35  1  0  0  0  0
 29 28  2  0  0  0  0
 30 29  1  0  0  0  0
 31 30  2  0  0  0  0
 31 32  1  0  0  0  0
 32 27  2  0  0  0  0
 33 34  1  0  0  0  0
 36 35  1  0  0  0  0
 37 38  2  0  0  0  0
 37 31  1  0  0  0  0
 39 37  2  0  0  0  0
M  END
>  <minimizedAffinity>
-8.94605827

>  <minimizedRMSD>
0.44925043

$$$$
