
 OpenBabel04082419533D

 36 38  0  0  1  0  0  0  0  0999 V2000
   35.8060   -2.1970  -10.4380 C   0  0  0  0  0  3  0  0  0  0  0  0
   36.8390   -2.5130   -9.6960 C   0  0  0  0  0  3  0  0  0  0  0  0
   36.8660   -2.5520   -8.2300 C   0  0  0  0  0  2  0  0  0  0  0  0
   36.6320   -3.9200   -7.7310 N   0  0  0  0  0  0  0  0  0  0  0  0
   37.3740   -4.4700   -6.6770 C   0  0  0  0  0  0  0  0  0  0  0  0
   38.2120   -3.6680   -6.1410 O   0  0  0  0  0  0  0  0  0  0  0  0
   35.9040   -4.4860   -8.1680 H   0  0  0  0  0  0  0  0  0  0  0  0
   37.2910   -5.8160   -6.1450 C   0  0  0  0  0  0  0  0  0  0  0  0
   36.1800   -6.6250   -6.2220 C   0  0  0  0  0  0  0  0  0  0  0  0
   36.2650   -7.9000   -5.6570 C   0  0  0  0  0  0  0  0  0  0  0  0
   37.3830   -8.3860   -5.0360 C   0  0  0  0  0  3  0  0  0  0  0  0
   38.4860   -7.5620   -4.9680 C   0  0  0  0  0  0  0  0  0  0  0  0
   38.4270   -6.3050   -5.5160 C   0  0  0  0  0  3  0  0  0  0  0  0
   35.0370   -6.1890   -6.8310 O   0  0  0  0  0  0  0  0  0  0  0  0
   34.2690   -6.7470   -6.8830 H   0  0  0  0  0  0  0  0  0  0  0  0
   35.1510   -8.7290   -5.7260 O   0  0  0  0  0  0  0  0  0  0  0  0
   35.2100   -9.5960   -5.3420 H   0  0  0  0  0  0  0  0  0  0  0  0
   39.6730   -8.0430   -4.3240 N   0  0  0  0  0  0  0  0  0  0  0  0
   39.6700   -9.2540   -3.6780 O   0  0  0  0  0  0  0  0  0  0  0  0
   40.7100   -7.3830   -4.3370 O   0  0  0  0  0  0  0  0  0  0  0  0
   35.8530   -2.1110  -11.9150 C   0  0  2  0  0  3  0  0  0  0  0  0
   37.0170   -1.2540  -12.3920 C   0  0  2  0  0  3  0  0  0  0  0  0
   36.4760   -0.9230  -13.7830 C   0  0  2  0  0  3  0  0  0  0  0  0
   35.0430   -0.7270  -13.4920 C   0  0  1  0  0  3  0  0  0  0  0  0
   34.6980   -1.5390  -12.4440 O   0  0  0  0  0  0  0  0  0  0  0  0
   38.2040   -1.9350  -12.4490 O   0  0  0  0  0  0  0  0  0  0  0  0
   38.5410   -2.1410  -11.5850 H   0  0  0  0  0  0  0  0  0  0  0  0
   36.6130   -2.1120  -14.5260 O   0  0  0  0  0  0  0  0  0  0  0  0
   36.2780   -1.9060  -15.3910 H   0  0  0  0  0  0  0  0  0  0  0  0
   34.6520    0.6190  -13.1840 N   0  0  0  0  0  0  0  0  0  0  0  0
   35.0200    1.3120  -12.1150 C   0  0  0  0  0  3  0  0  0  0  0  0
   34.6120    2.6100  -11.8660 C   0  0  0  0  0  3  0  0  0  0  0  0
   33.7730    3.2430  -12.7680 C   0  0  0  0  0  0  0  0  0  0  0  0
   33.3900    2.5270  -13.8790 C   0  0  0  0  0  3  0  0  0  0  0  0
   33.3930    4.4270  -12.5520 O   0  0  0  0  0  0  0  0  0  0  0  0
   33.8300    1.2350  -14.0700 C   0  0  0  0  0  3  0  0  0  0  0  0
  1  2  2  0  0  0  0
  2  3  1  0  0  0  0
  3  4  1  0  0  0  0
  4  5  1  0  0  0  0
  5  8  1  0  0  0  0
  5  6  2  0  0  0  0
  7  4  1  0  0  0  0
  8 13  1  0  0  0  0
  9  8  2  0  0  0  0
  9 10  1  0  0  0  0
 10 11  2  0  0  0  0
 11 12  1  0  0  0  0
 12 18  1  0  0  0  0
 13 12  2  0  0  0  0
 14  9  1  0  0  0  0
 15 14  1  0  0  0  0
 16 10  1  0  0  0  0
 16 17  1  0  0  0  0
 18 19  2  0  0  0  0
 20 18  2  0  0  0  0
 21  1  1  1  0  0  0
 22 26  1  6  0  0  0
 22 21  1  0  0  0  0
 23 28  1  6  0  0  0
 23 24  1  0  0  0  0
 23 22  1  0  0  0  0
 24 30  1  1  0  0  0
 24 25  1  0  0  0  0
 25 21  1  0  0  0  0
 26 27  1  0  0  0  0
 29 28  1  0  0  0  0
 30 31  1  0  0  0  0
 31 32  2  0  0  0  0
 33 35  2  0  0  0  0
 33 32  1  0  0  0  0
 34 33  1  0  0  0  0
 36 34  2  0  0  0  0
 36 30  1  0  0  0  0
M  END
>  <minimizedAffinity>
-8.98691368

>  <minimizedRMSD>
0.66975677

$$$$
