
 OpenBabel04082419543D

 56 59  0  0  1  0  0  0  0  0999 V2000
   -0.1990    4.9040    9.5620 C   0  0  2  0  0  3  0  0  0  0  0  0
    1.2580    4.9430    9.7830 C   0  0  0  0  0  2  0  0  0  0  0  0
    2.0070    5.8310    8.8790 C   0  0  1  0  0  3  0  0  0  0  0  0
    1.8600    7.3090    9.2630 C   0  0  1  0  0  3  0  0  0  0  0  0
    2.6600    7.5890   10.4360 N   0  0  0  0  0  0  0  0  0  0  0  0
    2.0290    7.7950   11.6840 C   0  0  0  0  0  0  0  0  0  0  0  0
    0.8510    7.4170   11.8020 O   0  0  0  0  0  0  0  0  0  0  0  0
    3.6770    7.6380   10.3630 H   0  0  0  0  0  0  0  0  0  0  0  0
    2.6540    8.3900   12.7610 O   0  0  0  0  0  0  0  0  0  0  0  0
    3.3670    9.5960   12.6640 C   0  0  0  0  0  2  0  0  0  0  0  0
    3.9610   10.1550   13.7950 C   0  0  0  0  0  0  0  0  0  0  0  0
    4.3610   11.5130   14.1240 C   0  0  0  0  0  3  0  0  0  0  0  0
    4.8860   11.6840   15.2640 N   0  0  0  0  0  0  0  0  0  0  0  0
    5.1270   10.9120   16.1640 C   0  0  0  0  0  2  0  0  0  0  0  0
    5.1540   12.6490   15.4590 H   0  0  0  0  0  0  0  0  0  0  0  0
    4.4760    9.3480   15.3430 S   0  0  0  0  0  0  0  0  0  0  0  0
    2.1110    8.2700    8.1620 C   0  0  0  0  0  2  0  0  0  0  0  0
    2.2670    9.6410    8.6420 C   0  0  0  0  0  0  0  0  0  0  0  0
    3.5170   10.1200    8.9800 C   0  0  0  0  0  3  0  0  0  0  0  0
    3.6900   11.4250    9.3920 C   0  0  0  0  0  3  0  0  0  0  0  0
    2.6030   12.2920    9.4780 C   0  0  0  0  0  3  0  0  0  0  0  0
    1.3580   11.8180    9.1420 C   0  0  0  0  0  3  0  0  0  0  0  0
    1.2080   10.5060    8.7310 C   0  0  0  0  0  3  0  0  0  0  0  0
    3.3500    5.4790    8.8800 O   0  0  0  0  0  0  0  0  0  0  0  0
    3.4410    4.5640    8.6420 H   0  0  0  0  0  0  0  0  0  0  0  0
   -0.9310    3.6730    9.2310 C   0  0  0  0  0  2  0  0  0  0  0  0
   -1.0130    2.5320   10.1180 C   0  0  0  0  0  0  0  0  0  0  0  0
   -1.8060    2.6360   11.2630 C   0  0  0  0  0  3  0  0  0  0  0  0
   -0.4380    1.2940    9.8960 C   0  0  0  0  0  3  0  0  0  0  0  0
   -2.0100    1.5820   12.1230 C   0  0  0  0  0  3  0  0  0  0  0  0
   -1.4210    0.3600   11.8710 C   0  0  0  0  0  3  0  0  0  0  0  0
   -0.6250    0.2280   10.7350 C   0  0  0  0  0  3  0  0  0  0  0  0
   -0.5960    5.9520    8.5860 N   0  0  0  0  0  0  0  0  0  0  0  0
   -1.9240    6.1520    8.1590 C   0  0  0  0  0  0  0  0  0  0  0  0
   -2.7670    6.5160    9.0200 O   0  0  0  0  0  0  0  0  0  0  0  0
    0.1300    6.5590    8.2060 H   0  0  0  0  0  0  0  0  0  0  0  0
   -2.3430    5.9450    6.7390 C   0  0  1  0  0  3  0  0  0  0  0  0
   -3.0630    4.7170    6.5680 N   0  0  0  0  0  0  0  0  0  0  0  0
   -4.4620    4.5870    6.7330 C   0  0  0  0  0  0  0  0  0  0  0  0
   -5.1740    3.3810    6.4920 N   0  0  0  0  0  0  0  0  0  0  0  0
   -5.0820    5.6230    7.1130 O   0  0  0  0  0  0  0  0  0  0  0  0
   -6.6220    3.4200    6.4920 C   0  0  0  0  0  1  0  0  0  0  0  0
   -2.5320    3.8840    6.3130 H   0  0  0  0  0  0  0  0  0  0  0  0
   -4.5380    2.1190    6.2480 C   0  0  0  0  0  2  0  0  0  0  0  0
   -4.6650    1.2670    7.5000 C   0  0  0  0  0  0  0  0  0  0  0  0
   -3.4930    0.7860    8.0840 C   0  0  0  0  0  3  0  0  0  0  0  0
   -4.2460   -0.1540    9.4820 S   0  0  0  0  0  0  0  0  0  0  0  0
   -5.9650    0.2510    9.0480 C   0  0  1  0  0  3  0  0  0  0  0  0
   -5.7890    0.9490    8.0420 N   0  0  0  0  0  0  0  0  0  0  0  0
   -6.6280    1.3160    7.5930 H   0  0  0  0  0  0  0  0  0  0  0  0
   -7.0710   -0.2790    9.8750 C   0  0  0  0  0  3  0  0  0  0  0  0
   -7.4390   -1.6760    9.4150 C   0  0  0  0  0  1  0  0  0  0  0  0
   -6.7110   -0.3710   11.3410 C   0  0  0  0  0  1  0  0  0  0  0  0
   -3.1720    7.0820    6.1990 C   0  0  0  0  0  3  0  0  0  0  0  0
   -2.6890    8.4020    6.7690 C   0  0  0  0  0  1  0  0  0  0  0  0
   -3.1990    7.0830    4.7050 C   0  0  0  0  0  1  0  0  0  0  0  0
  1 26  1  6  0  0  0
  1  2  1  0  0  0  0
  3 24  1  0  0  0  0
  3  4  1  0  0  0  0
  3  2  1  1  0  0  0
  4 17  1  6  0  0  0
  4  5  1  0  0  0  0
  5  6  1  0  0  0  0
  6  7  2  0  0  0  0
  6  9  1  0  0  0  0
  8  5  1  0  0  0  0
 10  9  1  0  0  0  0
 10 11  1  0  0  0  0
 11 12  2  0  0  0  0
 11 16  1  0  0  0  0
 12 13  1  0  0  0  0
 13 15  1  0  0  0  0
 13 14  1  0  0  0  0
 16 14  1  0  0  0  0
 17 18  1  0  0  0  0
 18 23  2  0  0  0  0
 18 19  1  0  0  0  0
 19 20  2  0  0  0  0
 20 21  1  0  0  0  0
 22 21  2  0  0  0  0
 23 22  1  0  0  0  0
 25 24  1  0  0  0  0
 26 27  1  0  0  0  0
 27 28  1  0  0  0  0
 28 30  2  0  0  0  0
 29 27  2  0  0  0  0
 29 32  1  0  0  0  0
 31 30  1  0  0  0  0
 32 31  2  0  0  0  0
 33  1  1  0  0  0  0
 34 33  1  0  0  0  0
 34 35  2  0  0  0  0
 36 33  1  0  0  0  0
 37 54  1  1  0  0  0
 37 34  1  0  0  0  0
 38 39  1  0  0  0  0
 38 37  1  0  0  0  0
 39 41  2  0  0  0  0
 40 39  1  0  0  0  0
 42 40  1  0  0  0  0
 43 38  1  0  0  0  0
 44 40  1  0  0  0  0
 44 45  1  0  0  0  0
 45 49  1  0  0  0  0
 45 46  2  0  0  0  0
 46 47  1  0  0  0  0
 48 47  1  0  0  0  0
 48 51  1  6  0  0  0
 49 48  1  0  0  0  0
 50 49  1  0  0  0  0
 51 53  1  0  0  0  0
 52 51  1  0  0  0  0
 54 55  1  0  0  0  0
 56 54  1  0  0  0  0
M  END
>  <minimizedAffinity>
-9.82999706

>  <minimizedRMSD>
1.95299006

$$$$
