
 OpenBabel04082420113D

 54 58  0  0  1  0  0  0  0  0999 V2000
   -0.0210    4.3770    9.9210 C   0  0  1  0  0  3  0  0  0  0  0  0
    1.1510    5.2430    9.4690 C   0  0  2  0  0  3  0  0  0  0  0  0
    2.1470    4.3670    9.0490 O   0  0  0  0  0  0  0  0  0  0  0  0
    2.8770    4.9060    8.7670 H   0  0  0  0  0  0  0  0  0  0  0  0
    1.6390    6.0980   10.6490 C   0  0  0  0  0  2  0  0  0  0  0  0
    1.7100    7.4670   10.2400 N   0  0  0  0  0  0  0  0  0  0  0  0
    1.8620    8.5040   11.1490 C   0  0  1  0  0  3  0  0  0  0  0  0
    0.6410    9.4830   11.1090 C   0  0  0  0  0  2  0  0  0  0  0  0
    0.7680   10.1250    9.7400 C   0  0  2  0  0  3  0  0  0  0  0  0
    0.1180   11.4260    9.6100 C   0  0  0  0  0  2  0  0  0  0  0  0
    0.4340    9.0580    8.7660 C   0  0  2  0  0  3  0  0  0  0  0  0
   -1.1710   11.5240    8.8770 C   0  0  0  0  0  2  0  0  0  0  0  0
   -1.0830   10.6160    7.6650 C   0  0  0  0  0  2  0  0  0  0  0  0
   -1.0000    9.2130    8.2270 C   0  0  0  0  0  2  0  0  0  0  0  0
    0.6880    7.6850    9.2270 C   0  0  0  0  0  2  0  0  0  0  0  0
    2.1090    8.3040   12.5600 C   0  0  0  0  0  0  0  0  0  0  0  0
    1.2370    8.0270   13.3940 O   0  0  0  0  0  0  0  0  0  0  0  0
    3.4380    8.4140   13.1260 N   0  0  0  0  0  0  0  0  0  0  0  0
    4.2190    8.5840   12.4910 H   0  0  0  0  0  0  0  0  0  0  0  0
    3.7180    8.2980   14.5110 C   0  0  0  0  0  0  0  0  0  0  0  0
    3.7660    9.6880   15.1140 C   0  0  0  0  0  1  0  0  0  0  0  0
    5.1000    7.6910   14.7710 C   0  0  0  0  0  1  0  0  0  0  0  0
    2.6880    7.5150   15.2910 C   0  0  0  0  0  1  0  0  0  0  0  0
   -0.9680    4.2030    8.8060 N   0  0  0  0  0  0  0  0  0  0  0  0
   -2.0380    5.0660    8.6200 C   0  0  0  0  0  0  0  0  0  0  0  0
   -2.1590    5.9850    9.4990 O   0  0  0  0  0  0  0  0  0  0  0  0
   -0.8330    3.4310    8.1540 H   0  0  0  0  0  0  0  0  0  0  0  0
   -3.0710    5.0870    7.5440 C   0  0  1  0  0  3  0  0  0  0  0  0
   -4.1560    4.1880    7.9820 N   0  0  0  0  0  0  0  0  0  0  0  0
   -4.2400    2.8400    7.5780 C   0  0  0  0  0  0  0  0  0  0  0  0
   -3.3980    2.3720    6.7900 O   0  0  0  0  0  0  0  0  0  0  0  0
   -4.8740    4.5560    8.6050 H   0  0  0  0  0  0  0  0  0  0  0  0
   -5.3300    1.9760    8.0870 C   0  0  0  0  0  0  0  0  0  0  0  0
   -5.1170    1.2230    9.2020 N   0  0  0  0  0  0  0  0  0  0  0  0
   -6.0950    0.4310    9.6880 C   0  0  0  0  0  0  0  0  0  0  0  0
   -4.2130    1.2580    9.6730 H   0  0  0  0  0  0  0  0  0  0  0  0
   -5.8740   -0.3310   10.8150 C   0  0  0  0  0  3  0  0  0  0  0  0
   -7.3270    0.3430    9.1010 C   0  0  0  0  0  0  0  0  0  0  0  0
   -6.8430   -1.1570   11.3480 C   0  0  0  0  0  3  0  0  0  0  0  0
   -8.0730   -1.2550   10.7750 C   0  0  0  0  0  3  0  0  0  0  0  0
   -8.3230   -0.4910    9.6290 C   0  0  0  0  0  2  0  0  0  0  0  0
   -7.5580    1.0940    7.9770 C   0  0  0  0  0  3  0  0  0  0  0  0
   -6.5610    1.8950    7.4900 C   0  0  0  0  0  3  0  0  0  0  0  0
   -3.6200    6.4220    7.2260 C   0  0  0  0  0  2  0  0  0  0  0  0
   -3.9660    6.6130    5.8010 C   0  0  0  0  0  0  0  0  0  0  0  0
   -4.1150    5.5680    5.0660 O   0  0  0  0  0  0  0  0  0  0  0  0
   -4.1460    7.8600    5.1860 N   0  0  0  0  0  1  0  0  0  0  0  0
    0.4600    3.0130   10.3100 C   0  0  0  0  0  2  0  0  0  0  0  0
   -0.6030    2.0910   10.7510 C   0  0  0  0  0  0  0  0  0  0  0  0
   -0.6240    0.7930   10.3280 C   0  0  0  0  0  3  0  0  0  0  0  0
   -1.6340   -0.0310   10.7660 C   0  0  0  0  0  3  0  0  0  0  0  0
   -2.6340    0.3990   11.6200 C   0  0  0  0  0  3  0  0  0  0  0  0
   -2.5960    1.7020   12.0330 C   0  0  0  0  0  3  0  0  0  0  0  0
   -1.6010    2.5380   11.6100 C   0  0  0  0  0  3  0  0  0  0  0  0
  1 48  1  6  0  0  0
  2  1  1  0  0  0  0
  2  5  1  1  0  0  0
  3  2  1  0  0  0  0
  4  3  1  0  0  0  0
  6  5  1  0  0  0  0
  6  7  1  0  0  0  0
  7 16  1  1  0  0  0
  8  7  1  0  0  0  0
  9 10  1  1  0  0  0
  9  8  1  0  0  0  0
 11 14  1  1  0  0  0
 11 15  1  0  0  0  0
 11  9  1  0  0  0  0
 12 10  1  0  0  0  0
 13 14  1  0  0  0  0
 13 12  1  0  0  0  0
 15  6  1  0  0  0  0
 16 18  1  0  0  0  0
 16 17  2  0  0  0  0
 18 20  1  0  0  0  0
 19 18  1  0  0  0  0
 20 22  1  0  0  0  0
 20 21  1  0  0  0  0
 20 23  1  0  0  0  0
 24  1  1  0  0  0  0
 25 24  1  0  0  0  0
 25 26  2  0  0  0  0
 27 24  1  0  0  0  0
 28 44  1  1  0  0  0
 28 29  1  0  0  0  0
 28 25  1  0  0  0  0
 29 32  1  0  0  0  0
 30 29  1  0  0  0  0
 30 33  1  0  0  0  0
 31 30  2  0  0  0  0
 33 34  1  0  0  0  0
 34 36  1  0  0  0  0
 34 35  1  0  0  0  0
 35 37  2  0  0  0  0
 37 39  1  0  0  0  0
 38 41  1  0  0  0  0
 38 35  1  0  0  0  0
 40 39  2  0  0  0  0
 41 40  1  0  0  0  0
 42 38  2  0  0  0  0
 43 42  1  0  0  0  0
 43 33  2  0  0  0  0
 45 44  1  0  0  0  0
 46 45  2  0  0  0  0
 47 45  1  0  0  0  0
 48 49  1  0  0  0  0
 49 54  1  0  0  0  0
 50 49  2  0  0  0  0
 50 51  1  0  0  0  0
 51 52  2  0  0  0  0
 52 53  1  0  0  0  0
 54 53  2  0  0  0  0
M  END
>  <minimizedAffinity>
-11.7745743

>  <minimizedRMSD>
1.53250504

$$$$
