
 OpenBabel04082420153D

 22 24  0  0  0  0  0  0  0  0999 V2000
  122.2610  133.7280   64.5280 C   0  0  0  0  0  0  0  0  0  0  0  0
  123.0090  132.6520   63.9330 C   0  0  0  0  0  3  0  0  0  0  0  0
  122.4170  131.6130   63.2940 C   0  0  0  0  0  3  0  0  0  0  0  0
  121.0520  131.6170   63.2290 C   0  0  0  0  0  3  0  0  0  0  0  0
  120.3180  132.6630   63.8020 C   0  0  0  0  0  0  0  0  0  0  0  0
  118.9520  132.5990   63.6500 C   0  0  0  0  0  3  0  0  0  0  0  0
  118.1740  133.5980   64.1400 C   0  0  0  0  0  3  0  0  0  0  0  0
  118.7750  134.6390   64.7700 C   0  0  0  0  0  3  0  0  0  0  0  0
  120.1720  134.7750   64.9660 C   0  0  0  0  0  0  0  0  0  0  0  0
  120.9170  133.7330   64.4580 C   0  0  0  0  0  0  0  0  0  0  0  0
  123.0790  134.6730   65.1660 N   0  0  0  0  0  0  0  0  0  0  0  0
  122.9240  135.6720   65.0300 H   0  0  0  0  0  0  0  0  0  0  0  0
  124.1040  134.2170   65.9920 C   0  0  0  0  0  0  0  0  0  0  0  0
  125.1740  135.0380   66.3910 C   0  0  0  0  0  3  0  0  0  0  0  0
  126.1650  134.5770   67.2300 C   0  0  0  0  0  3  0  0  0  0  0  0
  126.1490  133.2970   67.7080 C   0  0  0  0  0  3  0  0  0  0  0  0
  125.1330  132.4710   67.3470 C   0  0  0  0  0  3  0  0  0  0  0  0
  124.1580  132.9230   66.5230 C   0  0  0  0  0  3  0  0  0  0  0  0
  120.8180  136.1650   65.7090 S   0  0  0  0  0  0  0  0  0  0  0  0
  122.0540  136.7720   65.1410 O   0  0  0  0  0  1  0  0  0  0  0  0
  121.6040  135.5150   66.9570 O   0  0  0  0  0  1  0  0  0  0  0  0
  119.8470  137.1000   66.6570 O   0  0  0  0  0  1  0  0  0  0  0  0
  1 11  1  0  0  0  0
  2  1  2  0  0  0  0
  3  2  1  0  0  0  0
  4  3  2  0  0  0  0
  4  5  1  0  0  0  0
  5 10  1  0  0  0  0
  6  5  2  0  0  0  0
  6  7  1  0  0  0  0
  7  8  2  0  0  0  0
  8  9  1  0  0  0  0
  9 19  1  0  0  0  0
 10  1  1  0  0  0  0
 10  9  2  0  0  0  0
 11 13  1  0  0  0  0
 12 11  1  0  0  0  0
 13 14  2  0  0  0  0
 13 18  1  0  0  0  0
 14 15  1  0  0  0  0
 15 16  2  0  0  0  0
 17 16  1  0  0  0  0
 18 17  2  0  0  0  0
 19 22  1  0  0  0  0
 19 21  1  0  0  0  0
 20 19  1  0  0  0  0
M  END
>  <minimizedAffinity>
-6.11047983

>  <minimizedRMSD>
0.424017161

$$$$
