
 OpenBabel04082419543D

 28 31  0  0  1  0  0  0  0  0999 V2000
   17.2230    5.8730  -34.0690 C   0  0  0  0  0  3  0  0  0  0  0  0
   15.2280    5.6170  -32.8790 C   0  0  0  0  0  3  0  0  0  0  0  0
   17.8560    4.9780  -33.1990 C   0  0  0  0  0  3  0  0  0  0  0  0
   15.8200    4.7350  -32.0120 C   0  0  0  0  0  3  0  0  0  0  0  0
   14.3430    8.7590  -35.9910 C   0  0  0  0  0  2  0  0  0  0  0  0
   15.9090    6.2260  -33.9470 C   0  0  0  0  0  0  0  0  0  0  0  0
   15.5320    8.1630  -35.5350 C   0  0  0  0  0  0  0  0  0  0  0  0
   17.1480    4.4070  -32.1670 C   0  0  0  0  0  0  0  0  0  0  0  0
   15.1580    7.1560  -34.7430 C   0  0  0  0  0  0  0  0  0  0  0  0
   13.7900    7.1450  -34.7200 N   0  0  0  0  0  0  0  0  0  0  0  0
   13.2260    6.4790  -34.1930 H   0  0  0  0  0  0  0  0  0  0  0  0
   13.3030    8.1030  -35.4670 N   0  0  0  0  0  0  0  0  0  0  0  0
   17.7580    3.5300  -31.3130 F   0  0  0  0  0  0  0  0  0  0  0  0
   16.8560    8.6570  -35.8980 C   0  0  2  0  0  3  0  0  0  0  0  0
   17.5850    9.4110  -34.8980 C   0  0  0  0  0  0  0  0  0  0  0  0
   17.7530   10.7440  -35.3570 N   0  0  0  0  0  0  0  0  0  0  0  0
   18.0140    8.9910  -33.7990 O   0  0  0  0  0  0  0  0  0  0  0  0
   17.2520   10.8580  -36.6920 C   0  0  0  0  0  0  0  0  0  0  0  0
   18.1670   11.5030  -34.8170 H   0  0  0  0  0  0  0  0  0  0  0  0
   16.7680    9.5740  -37.0610 N   0  0  0  0  0  0  0  0  0  0  0  0
   17.2280   11.8860  -37.4320 O   0  0  0  0  0  0  0  0  0  0  0  0
   16.4150    9.3210  -37.9830 H   0  0  0  0  0  0  0  0  0  0  0  0
   11.9270    8.3730  -35.6660 C   0  0  0  0  0  0  0  0  0  0  0  0
   10.9220    7.6710  -35.0200 C   0  0  0  0  0  3  0  0  0  0  0  0
    9.5880    7.9560  -35.2330 C   0  0  0  0  0  3  0  0  0  0  0  0
    9.2210    8.9600  -36.1060 C   0  0  0  0  0  3  0  0  0  0  0  0
   10.1970    9.6750  -36.7620 C   0  0  0  0  0  3  0  0  0  0  0  0
   11.5210    9.3680  -36.5290 C   0  0  0  0  0  3  0  0  0  0  0  0
  1  6  2  0  0  0  0
  1  3  1  0  0  0  0
  2  4  2  0  0  0  0
  3  8  2  0  0  0  0
  5  7  1  0  0  0  0
  5 12  1  0  0  0  0
  6  2  1  0  0  0  0
  7  9  2  0  0  0  0
  8  4  1  0  0  0  0
  8 13  1  0  0  0  0
  9 10  1  0  0  0  0
  9  6  1  0  0  0  0
 10 11  1  0  0  0  0
 12 10  1  0  0  0  0
 14  7  1  1  0  0  0
 14 15  1  0  0  0  0
 15 17  2  0  0  0  0
 16 15  1  0  0  0  0
 16 19  1  0  0  0  0
 18 16  1  0  0  0  0
 20 18  1  0  0  0  0
 20 14  1  0  0  0  0
 21 18  2  0  0  0  0
 22 20  1  0  0  0  0
 23 12  1  0  0  0  0
 23 24  1  0  0  0  0
 25 24  2  0  0  0  0
 26 25  1  0  0  0  0
 27 28  1  0  0  0  0
 27 26  2  0  0  0  0
 28 23  2  0  0  0  0
M  END
>  <minimizedAffinity>
-6.27648544

>  <minimizedRMSD>
0.691066384

$$$$
