
 OpenBabel04082419573D

 35 38  0  0  1  0  0  0  0  0999 V2000
   23.6400   -7.4130    1.4660 O   0  0  0  0  0  0  0  0  0  0  0  0
   21.3600   -7.1240    1.8770 N   0  0  0  0  0  0  0  0  0  0  0  0
   21.2120   -6.8610    0.9020 H   0  0  0  0  0  0  0  0  0  0  0  0
   20.3570   -7.1440    2.6630 C   0  0  0  0  0  3  0  0  0  0  0  0
   20.5080   -7.5160    4.0890 C   0  0  0  0  0  0  0  0  0  0  0  0
   21.7030   -7.8170    4.4900 C   0  0  0  0  0  2  0  0  0  0  0  0
   22.9420   -7.8340    3.6910 C   0  0  2  0  0  3  0  0  0  0  0  0
   22.6640   -7.4480    2.2970 C   0  0  0  0  0  0  0  0  0  0  0  0
   23.5870   -9.1410    3.7460 N   0  0  0  0  0  0  0  0  0  0  0  0
   24.2330   -9.5510    4.9150 C   0  0  0  0  0  0  0  0  0  0  0  0
   23.8260   -9.0910    6.0380 O   0  0  0  0  0  0  0  0  0  0  0  0
   23.5670   -9.7550    2.9310 H   0  0  0  0  0  0  0  0  0  0  0  0
   25.3420  -10.4770    4.8850 C   0  0  0  0  0  0  0  0  0  0  0  0
   25.4980  -11.4060    5.8650 C   0  0  0  0  0  3  0  0  0  0  0  0
   26.5660  -12.2990    5.8380 C   0  0  0  0  0  3  0  0  0  0  0  0
   27.5240  -12.2900    4.8130 C   0  0  0  0  0  0  0  0  0  0  0  0
   27.3150  -11.3290    3.8510 C   0  0  0  0  0  3  0  0  0  0  0  0
   26.2670  -10.4500    3.8740 C   0  0  0  0  0  3  0  0  0  0  0  0
   28.5910  -13.2050    4.8260 N   0  0  0  0  0  0  0  0  0  0  0  0
   28.9780  -13.8920    6.0200 C   0  0  0  0  0  2  0  0  0  0  0  0
   30.3620  -13.3730    6.3670 C   0  0  0  0  0  2  0  0  0  0  0  0
   31.2950  -13.3780    5.2140 C   0  0  0  0  0  2  0  0  0  0  0  0
   30.7290  -14.0220    3.9730 C   0  0  0  0  0  2  0  0  0  0  0  0
   29.3550  -13.4930    3.6330 C   0  0  0  0  0  2  0  0  0  0  0  0
   19.3070   -7.5120    4.9120 C   0  0  2  0  0  3  0  0  0  0  0  0
   18.5020   -6.4310    4.9840 N   0  0  0  0  0  0  0  0  0  0  0  0
   17.3880   -6.3580    5.7170 C   0  0  1  0  0  3  0  0  0  0  0  0
   18.7620   -5.6110    4.4390 H   0  0  0  0  0  0  0  0  0  0  0  0
   17.0580   -7.4570    6.4340 N   0  0  0  0  0  0  0  0  0  0  0  0
   17.7860   -8.5700    6.4290 C   0  0  0  0  0  3  0  0  0  0  0  0
   16.2130   -7.4300    7.0030 H   0  0  0  0  0  0  0  0  0  0  0  0
   18.9390   -8.6050    5.6520 C   0  0  0  0  0  3  0  0  0  0  0  0
   16.5720   -5.2040    5.7650 N   0  0  0  0  0  0  0  0  0  0  0  0
   16.8100   -4.0060    4.9920 C   0  0  0  0  0  1  0  0  0  0  0  0
   15.7620   -5.2190    6.3840 H   0  0  0  0  0  0  0  0  0  0  0  0
  1  8  2  0  0  0  0
  2  8  1  0  0  0  0
  2  4  1  0  0  0  0
  3  2  1  0  0  0  0
  4  5  2  0  0  0  0
  5  6  1  0  0  0  0
  7  9  1  6  0  0  0
  7  6  1  0  0  0  0
  8  7  1  0  0  0  0
  9 10  1  0  0  0  0
 10 11  2  0  0  0  0
 12  9  1  0  0  0  0
 13 10  1  0  0  0  0
 13 14  1  0  0  0  0
 15 14  2  0  0  0  0
 16 19  1  0  0  0  0
 16 15  1  0  0  0  0
 17 18  1  0  0  0  0
 17 16  2  0  0  0  0
 18 13  2  0  0  0  0
 19 20  1  0  0  0  0
 20 21  1  0  0  0  0
 22 21  1  0  0  0  0
 23 22  1  0  0  0  0
 24 23  1  0  0  0  0
 24 19  1  0  0  0  0
 25  5  1  1  0  0  0
 25 26  1  0  0  0  0
 25 32  1  0  0  0  0
 26 27  1  0  0  0  0
 27 33  1  1  0  0  0
 27 29  1  0  0  0  0
 28 26  1  0  0  0  0
 29 31  1  0  0  0  0
 30 29  1  0  0  0  0
 32 30  2  0  0  0  0
 33 35  1  0  0  0  0
 34 33  1  0  0  0  0
M  END
>  <minimizedAffinity>
-7.78075647

>  <minimizedRMSD>
1.12731624

$$$$
