
 OpenBabel04082420093D

 20 21  0  0  0  0  0  0  0  0999 V2000
   30.9260   -6.4170   29.2040 N   0  0  0  0  0  0  0  0  0  0  0  0
   30.4680   -5.6420   28.7250 H   0  0  0  0  0  0  0  0  0  0  0  0
   32.1130   -6.9060   28.6300 C   0  0  0  0  0  0  0  0  0  0  0  0
   32.8750   -7.8280   29.3540 C   0  0  0  0  0  3  0  0  0  0  0  0
   33.9840   -8.3740   28.7810 C   0  0  0  0  0  3  0  0  0  0  0  0
   34.3480   -8.0130   27.5030 C   0  0  0  0  0  3  0  0  0  0  0  0
   33.6150   -7.1100   26.7810 C   0  0  0  0  0  3  0  0  0  0  0  0
   32.4620   -6.5300   27.3430 C   0  0  0  0  0  0  0  0  0  0  0  0
   31.7140   -5.6030   26.5060 C   0  0  0  0  0  0  0  0  0  0  0  0
   30.7460   -4.9640   26.9490 O   0  0  0  0  0  1  0  0  0  0  0  0
   32.0740   -5.4120   25.1600 O   0  0  0  0  0  0  0  0  0  0  0  0
   30.2960   -6.9060   30.4020 C   0  0  0  0  0  0  0  0  0  0  0  0
   31.0490   -7.2580   31.4960 C   0  0  0  0  0  3  0  0  0  0  0  0
   30.4640   -7.6560   32.6720 C   0  0  0  0  0  3  0  0  0  0  0  0
   29.0930   -7.7170   32.7910 C   0  0  0  0  0  3  0  0  0  0  0  0
   28.3550   -7.3710   31.7120 C   0  0  0  0  0  3  0  0  0  0  0  0
   28.9160   -6.9580   30.4930 C   0  0  0  0  0  0  0  0  0  0  0  0
   28.0290   -6.5850   29.4190 C   0  0  0  0  0  0  0  0  0  0  0  0
   26.6990   -6.3810   29.4740 O   0  0  0  0  0  1  0  0  0  0  0  0
   28.5490   -6.4220   28.2550 O   0  0  0  0  0  0  0  0  0  0  0  0
  1 12  1  0  0  0  0
  2  1  1  0  0  0  0
  3  1  1  0  0  0  0
  3  4  1  0  0  0  0
  5  4  2  0  0  0  0
  6  5  1  0  0  0  0
  7  8  1  0  0  0  0
  7  6  2  0  0  0  0
  8  3  2  0  0  0  0
  9 10  1  0  0  0  0
  9  8  1  0  0  0  0
 11  9  2  0  0  0  0
 12 17  2  0  0  0  0
 12 13  1  0  0  0  0
 13 14  2  0  0  0  0
 14 15  1  0  0  0  0
 16 15  2  0  0  0  0
 17 16  1  0  0  0  0
 18 19  1  0  0  0  0
 18 17  1  0  0  0  0
 20 18  2  0  0  0  0
M  END
>  <minimizedAffinity>
-6.84424877

>  <minimizedRMSD>
0.496610582

$$$$
