
 OpenBabel04082419533D

 17 19  0  0  1  0  0  0  0  0999 V2000
   68.7390   50.4250    8.8490 C   0  0  2  0  0  3  0  0  0  0  0  0
   68.8500   49.3300    9.7110 C   0  0  0  0  0  0  0  0  0  0  0  0
   69.6850   49.4760   10.8180 C   0  0  0  0  0  3  0  0  0  0  0  0
   67.9380   50.2700    7.7970 N   0  0  0  0  0  0  0  0  0  0  0  0
   67.8390   51.0540    7.1510 H   0  0  0  0  0  0  0  0  0  0  0  0
   67.2610   49.1620    7.5360 C   0  0  0  0  0  0  0  0  0  0  0  0
   68.1640   48.1640    9.4730 C   0  0  0  0  0  3  0  0  0  0  0  0
   67.3570   48.0770    8.3690 C   0  0  0  0  0  3  0  0  0  0  0  0
   66.4090   49.0590    6.3790 N   0  0  0  0  0  1  0  0  0  0  0  0
   69.4270   51.5930    9.0880 C   0  0  0  0  0  3  0  0  0  0  0  0
   70.2460   51.6760   10.2100 C   0  0  0  0  0  3  0  0  0  0  0  0
   70.3720   50.6170   11.0710 C   0  0  0  0  0  0  0  0  0  0  0  0
   71.2740   50.7600   12.2730 C   0  0  0  0  0  0  0  0  0  0  0  0
   71.1930   51.8120   13.0900 C   0  0  0  0  0  3  0  0  0  0  0  0
   72.0790   51.8510   14.1730 C   0  0  0  0  0  3  0  0  0  0  0  0
   73.0080   50.4280   14.0370 S   0  0  0  0  0  0  0  0  0  0  0  0
   72.1940   49.8020   12.5280 C   0  0  0  0  0  3  0  0  0  0  0  0
  1 10  1  6  0  0  0
  1  2  1  0  0  0  0
  2  3  1  0  0  0  0
  3 12  2  0  0  0  0
  4  1  1  0  0  0  0
  5  4  1  0  0  0  0
  6  4  1  0  0  0  0
  6  8  2  0  0  0  0
  7  2  2  0  0  0  0
  8  7  1  0  0  0  0
  9  6  1  0  0  0  0
 10 11  2  0  0  0  0
 11 12  1  0  0  0  0
 12 13  1  0  0  0  0
 13 17  2  0  0  0  0
 13 14  1  0  0  0  0
 14 15  2  0  0  0  0
 16 15  1  0  0  0  0
 17 16  1  0  0  0  0
M  END
>  <minimizedAffinity>
-5.86225557

>  <minimizedRMSD>
0.606630385

$$$$
