
 OpenBabel04082419563D

 21 21  0  0  0  0  0  0  0  0999 V2000
   16.9280    4.2940   15.3160 C   0  0  0  0  0  0  0  0  0  0  0  0
   15.2210    2.6570   15.8410 C   0  0  0  0  0  3  0  0  0  0  0  0
   15.6260    3.9810   15.6140 C   0  0  0  0  0  3  0  0  0  0  0  0
   16.1580    1.6500   15.7610 C   0  0  0  0  0  0  0  0  0  0  0  0
   17.8320    3.2360   15.2490 C   0  0  0  0  0  3  0  0  0  0  0  0
   17.4560    1.9350   15.4660 C   0  0  0  0  0  3  0  0  0  0  0  0
   17.3770    5.6650   15.0750 C   0  0  0  0  0  0  0  0  0  0  0  0
   18.2410    6.0650   14.0360 N   0  0  0  0  0  0  0  0  0  0  0  0
   18.4710    5.3490   13.3470 H   0  0  0  0  0  0  0  0  0  0  0  0
   16.9830    6.6110   15.8400 O   0  0  0  0  0  0  0  0  0  0  0  0
   18.8280    7.3330   13.8280 C   0  0  0  0  0  2  0  0  0  0  0  0
   19.9720    7.7350   14.6810 C   0  0  0  0  0  0  0  0  0  0  0  0
   21.0470    8.2820   14.0150 F   0  0  0  0  0  0  0  0  0  0  0  0
   20.4710    6.5460   15.2480 F   0  0  0  0  0  0  0  0  0  0  0  0
   19.5980    8.5030   15.7710 F   0  0  0  0  0  0  0  0  0  0  0  0
   15.6310   -0.0100   16.0490 S   0  0  0  0  0  0  0  0  0  0  0  0
   15.9480   -0.4140   17.4410 O   0  0  0  0  0  0  0  0  0  0  0  0
   14.1430   -0.0870   15.7570 O   0  0  0  0  0  0  0  0  0  0  0  0
   16.4550   -1.0170   14.8890 N   0  0  0  0  0  0  0  0  0  0  0  0
   17.1150   -0.6920   14.1820 H   0  0  0  0  0  0  0  0  0  0  0  0
   16.1510   -1.9770   15.0550 H   0  0  0  0  0  0  0  0  0  0  0  0
  1  3  1  0  0  0  0
  3  2  2  0  0  0  0
  4  2  1  0  0  0  0
  4 16  1  0  0  0  0
  5  1  2  0  0  0  0
  5  6  1  0  0  0  0
  6  4  2  0  0  0  0
  7  1  1  0  0  0  0
  7 10  2  0  0  0  0
  8  7  1  0  0  0  0
  9  8  1  0  0  0  0
 11  8  1  0  0  0  0
 11 12  1  0  0  0  0
 12 14  1  0  0  0  0
 12 15  1  0  0  0  0
 13 12  1  0  0  0  0
 16 17  2  0  0  0  0
 18 16  2  0  0  0  0
 19 21  1  0  0  0  0
 19 16  1  0  0  0  0
 20 19  1  0  0  0  0
M  END
>  <minimizedAffinity>
-9.41536236

>  <minimizedRMSD>
0.953005612

$$$$
