
 OpenBabel04082420063D

 25 26  0  0  1  0  0  0  0  0999 V2000
   32.7220   22.8650   27.6530 C   0  0  1  0  0  3  0  0  0  0  0  0
   33.1680   23.0250   26.2590 C   0  0  1  0  0  3  0  0  0  0  0  0
   32.5130   22.0200   25.3240 C   0  0  2  0  0  3  0  0  0  0  0  0
   32.8500   20.6720   25.9360 C   0  0  1  0  0  3  0  0  0  0  0  0
   32.0900   20.6550   27.2490 C   0  0  2  0  0  3  0  0  0  0  0  0
   32.4650   21.6250   28.1140 O   0  0  0  0  0  0  0  0  0  0  0  0
   33.7350   23.4640   28.5370 N   0  0  0  0  0  0  0  0  0  0  0  0
   35.0470   23.3000   28.2650 C   0  0  0  0  0  3  0  0  0  0  0  0
   35.9770   23.8780   29.1200 C   0  0  0  0  0  0  0  0  0  0  0  0
   37.2850   23.7340   28.8770 F   0  0  0  0  0  0  0  0  0  0  0  0
   35.5770   24.5980   30.2140 C   0  0  0  0  0  0  0  0  0  0  0  0
   36.4250   25.1230   30.9920 O   0  0  0  0  0  0  0  0  0  0  0  0
   34.2580   24.7370   30.4500 N   0  0  0  0  0  0  0  0  0  0  0  0
   33.3830   24.1800   29.6250 C   0  0  0  0  0  0  0  0  0  0  0  0
   33.9350   25.2680   31.2590 H   0  0  0  0  0  0  0  0  0  0  0  0
   32.1360   24.3250   29.8690 O   0  0  0  0  0  0  0  0  0  0  0  0
   32.8480   24.3070   25.7630 O   0  0  0  0  0  0  0  0  0  0  0  0
   33.1360   24.4100   24.8630 H   0  0  0  0  0  0  0  0  0  0  0  0
   32.9280   22.1470   24.0290 O   0  0  0  0  0  0  0  0  0  0  0  0
   32.5180   21.5200   23.4450 H   0  0  0  0  0  0  0  0  0  0  0  0
   32.2110   19.3130   27.9410 C   0  0  0  0  0  2  0  0  0  0  0  0
   33.1490   18.5050   27.2820 O   0  0  0  0  0  0  0  0  0  0  0  0
   33.2240   17.6630   27.7160 H   0  0  0  0  0  0  0  0  0  0  0  0
   32.5070   19.6120   25.1460 O   0  0  0  0  0  0  0  0  0  0  0  0
   32.7180   18.7690   25.5290 H   0  0  0  0  0  0  0  0  0  0  0  0
  1  6  1  0  0  0  0
  1  7  1  1  0  0  0
  2 17  1  6  0  0  0
  2  1  1  0  0  0  0
  3 19  1  6  0  0  0
  3  4  1  0  0  0  0
  3  2  1  0  0  0  0
  4 24  1  6  0  0  0
  4  5  1  0  0  0  0
  5 21  1  1  0  0  0
  5  6  1  0  0  0  0
  7 14  1  0  0  0  0
  8  7  1  0  0  0  0
  8  9  2  0  0  0  0
  9 11  1  0  0  0  0
 10  9  1  0  0  0  0
 11 13  1  0  0  0  0
 11 12  2  0  0  0  0
 13 15  1  0  0  0  0
 14 16  2  0  0  0  0
 14 13  1  0  0  0  0
 18 17  1  0  0  0  0
 20 19  1  0  0  0  0
 22 23  1  0  0  0  0
 22 21  1  0  0  0  0
 24 25  1  0  0  0  0
M  END
>  <minimizedAffinity>
-8.78878403

>  <minimizedRMSD>
0.317515045

$$$$
