
 OpenBabel04082420173D

 25 28  0  0  1  0  0  0  0  0999 V2000
   29.4220   16.1630   -1.1640 C   0  0  0  0  0  0  0  0  0  0  0  0
   28.2140   15.5250   -1.0780 C   0  0  0  0  0  3  0  0  0  0  0  0
   27.6360   15.3290    0.1360 C   0  0  0  0  0  0  0  0  0  0  0  0
   26.0850   14.5170    0.1950 Cl  0  0  0  0  0  0  0  0  0  0  0  0
   28.2550   15.7650    1.3160 C   0  0  0  0  0  3  0  0  0  0  0  0
   29.4970   16.4190    1.2750 C   0  0  0  0  0  3  0  0  0  0  0  0
   30.0220   16.5870    0.0250 C   0  0  0  0  0  0  0  0  0  0  0  0
   31.3130   17.2260    0.0590 N   0  0  0  0  0  0  0  0  0  0  0  0
   31.6090   18.1720    0.9300 C   0  0  2  0  0  3  0  0  0  0  0  0
   30.7240   18.8060    1.9190 C   0  0  0  0  0  1  0  0  0  0  0  0
   32.9160   18.4760    0.6450 N   0  0  0  0  0  0  0  0  0  0  0  0
   33.4770   19.1750    1.1310 H   0  0  0  0  0  0  0  0  0  0  0  0
   33.3420   17.7080   -0.3760 N   0  0  0  0  0  0  0  0  0  0  0  0
   34.2750   17.7330   -0.7860 H   0  0  0  0  0  0  0  0  0  0  0  0
   32.3470   16.9110   -0.7660 C   0  0  2  0  0  3  0  0  0  0  0  0
   32.3390   15.9080   -1.8940 C   0  0  0  0  0  2  0  0  0  0  0  0
   31.2120   16.1680   -2.7880 N   0  0  0  0  0  0  0  0  0  0  0  0
   31.4560   16.2720   -3.7730 H   0  0  0  0  0  0  0  0  0  0  0  0
   29.9310   16.2910   -2.5180 C   0  0  1  0  0  3  0  0  0  0  0  0
   28.9780   16.5210   -3.5530 C   0  0  0  0  0  0  0  0  0  0  0  0
   29.3910   16.1400   -4.8440 C   0  0  0  0  0  3  0  0  0  0  0  0
   28.6670   16.3680   -5.9760 C   0  0  0  0  0  3  0  0  0  0  0  0
   27.4570   17.0130   -5.8410 C   0  0  0  0  0  3  0  0  0  0  0  0
   27.0120   17.4060   -4.5980 C   0  0  0  0  0  3  0  0  0  0  0  0
   27.7740   17.1560   -3.4830 C   0  0  0  0  0  3  0  0  0  0  0  0
  1  2  2  0  0  0  0
  1  7  1  0  0  0  0
  2  3  1  0  0  0  0
  3  4  1  0  0  0  0
  3  5  2  0  0  0  0
  6  5  1  0  0  0  0
  7  8  1  0  0  0  0
  7  6  2  0  0  0  0
  8  9  1  0  0  0  0
  9 10  1  6  0  0  0
 11  9  1  0  0  0  0
 11 12  1  0  0  0  0
 13 11  1  0  0  0  0
 14 13  1  0  0  0  0
 15 16  1  6  0  0  0
 15 13  1  0  0  0  0
 15  8  1  0  0  0  0
 17 19  1  0  0  0  0
 17 16  1  0  0  0  0
 18 17  1  0  0  0  0
 19 20  1  6  0  0  0
 19  1  1  0  0  0  0
 20 25  1  0  0  0  0
 21 20  2  0  0  0  0
 22 23  2  0  0  0  0
 22 21  1  0  0  0  0
 23 24  1  0  0  0  0
 24 25  2  0  0  0  0
M  END
>  <minimizedAffinity>
-7.86971855

>  <minimizedRMSD>
0.329069197

$$$$
