
 OpenBabel04082420083D

 12 11  0  0  0  0  0  0  0  0999 V2000
    3.7710    0.1530   20.0780 C   0  0  0  0  0  2  0  0  0  0  0  0
    3.3930    1.5010   20.5850 C   0  0  0  0  0  2  0  0  0  0  0  0
    3.5120    2.5120   19.4760 C   0  0  0  0  0  2  0  0  0  0  0  0
    3.4610    3.8770   20.0280 C   0  0  0  0  0  0  0  0  0  0  0  0
    2.4200    4.2620   20.6080 O   0  0  0  0  0  1  0  0  0  0  0  0
    4.5700    4.7200   19.9000 O   0  0  0  0  0  0  0  0  0  0  0  0
    4.6020   -0.6670   21.0370 C   0  0  0  0  0  2  0  0  0  0  0  0
    4.8630   -1.9920   20.3690 C   0  0  0  0  0  2  0  0  0  0  0  0
    5.2680   -3.0680   21.3550 C   0  0  0  0  0  2  0  0  0  0  0  0
    6.5580   -3.6500   20.8130 C   0  0  0  0  0  2  0  0  0  0  0  0
    7.4340   -4.2000   21.9120 C   0  0  0  0  0  2  0  0  0  0  0  0
    7.2690   -5.7210   21.8710 C   0  0  0  0  0  1  0  0  0  0  0  0
  1  2  1  0  0  0  0
  1  7  1  0  0  0  0
  3  4  1  0  0  0  0
  3  2  1  0  0  0  0
  4  5  1  0  0  0  0
  6  4  2  0  0  0  0
  8  7  1  0  0  0  0
  8  9  1  0  0  0  0
 10  9  1  0  0  0  0
 10 11  1  0  0  0  0
 12 11  1  0  0  0  0
M  END
>  <minimizedAffinity>
-2.61720896

>  <minimizedRMSD>
0.944113135

$$$$
