
 OpenBabel04082420133D

 17 19  0  0  1  0  0  0  0  0999 V2000
   22.8570   36.9400   41.1010 C   0  0  1  0  0  0  0  0  0  0  0  0
   24.2760   37.1830   41.0130 C   0  0  0  0  0  0  0  0  0  0  0  0
   22.5860   36.6150   42.4890 C   0  0  0  0  0  0  0  0  0  0  0  0
   21.9900   38.0410   40.5480 C   0  0  0  0  0  2  0  0  0  0  0  0
   22.3740   35.7760   40.2550 C   0  0  0  0  0  2  0  0  0  0  0  0
   24.8160   37.0130   42.2620 C   0  0  0  0  0  0  0  0  0  0  0  0
   25.1260   37.5310   39.9680 C   0  0  0  0  0  3  0  0  0  0  0  0
   23.8030   36.6620   43.1990 N   0  0  0  0  0  0  0  0  0  0  0  0
   23.9330   36.4790   44.1930 H   0  0  0  0  0  0  0  0  0  0  0  0
   21.4940   36.3230   43.0690 O   0  0  0  0  0  0  0  0  0  0  0  0
   20.6550   37.3290   40.4670 C   0  0  0  0  0  2  0  0  0  0  0  0
   20.9510   35.9680   40.1340 N   0  0  0  0  0  4  0  0  0  0  0  0
   20.4150   35.3010   40.6900 H   0  0  0  0  0  0  0  0  0  0  0  0
   20.5940   35.7010   39.2170 H   0  0  0  0  0  0  0  0  0  0  0  0
   26.1940   37.1950   42.4420 C   0  0  0  0  0  3  0  0  0  0  0  0
   26.4810   37.7040   40.1670 C   0  0  0  0  0  3  0  0  0  0  0  0
   27.0390   37.5390   41.4130 C   0  0  0  0  0  3  0  0  0  0  0  0
  1  5  1  6  0  0  0
  1  3  1  0  0  0  0
  2  1  1  0  0  0  0
  2  6  1  0  0  0  0
  3 10  2  0  0  0  0
  3  8  1  0  0  0  0
  4  1  1  0  0  0  0
  6 15  2  0  0  0  0
  6  8  1  0  0  0  0
  7 16  1  0  0  0  0
  7  2  2  0  0  0  0
  8  9  1  0  0  0  0
 11  4  1  0  0  0  0
 12  5  1  0  0  0  0
 12 11  1  0  0  0  0
 12 13  1  0  0  0  0
 14 12  1  0  0  0  0
 16 17  2  0  0  0  0
 17 15  1  0  0  0  0
M  END
>  <minimizedAffinity>
-6.35977316

>  <minimizedRMSD>
0.621897876

$$$$
