
 OpenBabel04082420033D

 14 13  0  0  0  0  0  0  0  0999 V2000
   -2.2460    9.6870   18.7440 C   0  0  0  0  0  2  0  0  0  0  0  0
   -2.8260    8.3100   18.5650 C   0  0  0  0  0  2  0  0  0  0  0  0
   -2.7420    7.5270   19.8400 C   0  0  0  0  0  2  0  0  0  0  0  0
   -2.6760    6.0370   19.5900 C   0  0  0  0  0  2  0  0  0  0  0  0
   -1.3050    5.5110   19.5550 C   0  0  0  0  0  0  0  0  0  0  0  0
   -0.1470    6.2360   19.7160 O   0  0  0  0  0  1  0  0  0  0  0  0
   -1.1990    4.2570   19.3560 O   0  0  0  0  0  0  0  0  0  0  0  0
   -3.0920   10.7850   18.2100 C   0  0  0  0  0  2  0  0  0  0  0  0
   -2.4720   12.1570   18.2830 C   0  0  0  0  0  2  0  0  0  0  0  0
   -3.4320   13.1900   17.8170 C   0  0  0  0  0  2  0  0  0  0  0  0
   -2.9230   14.6010   17.9690 C   0  0  0  0  0  2  0  0  0  0  0  0
   -3.6950   15.5920   17.1490 C   0  0  0  0  0  2  0  0  0  0  0  0
   -3.2010   17.0150   17.4320 C   0  0  0  0  0  2  0  0  0  0  0  0
   -3.8620   18.0030   16.5100 C   0  0  0  0  0  1  0  0  0  0  0  0
  2  1  1  0  0  0  0
  2  3  1  0  0  0  0
  4  3  1  0  0  0  0
  5  4  1  0  0  0  0
  5  6  1  0  0  0  0
  7  5  2  0  0  0  0
  8  9  1  0  0  0  0
  8  1  1  0  0  0  0
 10 11  1  0  0  0  0
 10  9  1  0  0  0  0
 12 13  1  0  0  0  0
 12 11  1  0  0  0  0
 14 13  1  0  0  0  0
M  END
>  <minimizedAffinity>
-3.52679849

>  <minimizedRMSD>
0.369556904

$$$$
