
 OpenBabel04082420043D

 16 15  0  0  0  0  0  0  0  0999 V2000
   -2.5130    9.1780   19.5750 C   0  0  0  0  0  2  0  0  0  0  0  0
   -2.7970    7.7400   19.2120 C   0  0  0  0  0  2  0  0  0  0  0  0
   -1.9390    6.8210   20.0090 C   0  0  0  0  0  2  0  0  0  0  0  0
   -2.1870    5.3690   19.6440 C   0  0  0  0  0  2  0  0  0  0  0  0
   -0.8660    4.7110   19.3440 C   0  0  0  0  0  2  0  0  0  0  0  0
   -0.0160    4.8190   20.5630 C   0  0  0  0  0  0  0  0  0  0  0  0
    0.7930    5.7590   20.7120 O   0  0  0  0  0  0  0  0  0  0  0  0
   -0.1140    3.8650   21.5590 O   0  0  0  0  0  1  0  0  0  0  0  0
   -3.0280   10.0970   18.5480 C   0  0  0  0  0  2  0  0  0  0  0  0
   -3.0110   11.5290   19.0370 C   0  0  0  0  0  2  0  0  0  0  0  0
   -3.4070   12.4430   17.9130 C   0  0  0  0  0  2  0  0  0  0  0  0
   -2.8690   13.8650   18.1470 C   0  0  0  0  0  2  0  0  0  0  0  0
   -3.8750   14.8700   17.7370 C   0  0  0  0  0  2  0  0  0  0  0  0
   -3.3570   16.1670   17.2620 C   0  0  0  0  0  3  0  0  0  0  0  0
   -4.3370   17.1630   16.8090 C   0  0  0  0  0  3  0  0  0  0  0  0
   -3.8370   18.4810   16.3990 C   0  0  0  0  0  1  0  0  0  0  0  0
  2  1  1  0  0  0  0
  2  3  1  0  0  0  0
  4  3  1  0  0  0  0
  5  4  1  0  0  0  0
  5  6  1  0  0  0  0
  6  7  2  0  0  0  0
  6  8  1  0  0  0  0
  9 10  1  0  0  0  0
  9  1  1  0  0  0  0
 11 12  1  0  0  0  0
 11 10  1  0  0  0  0
 13 12  1  0  0  0  0
 14 13  1  0  0  0  0
 15 14  2  0  0  0  0
 16 15  1  0  0  0  0
M  END
>  <minimizedAffinity>
-3.6637361

>  <minimizedRMSD>
0.680358231

$$$$
