
 OpenBabel04082419553D

 18 17  0  0  0  0  0  0  0  0999 V2000
   -2.9410    9.1550   19.4160 C   0  0  0  0  0  2  0  0  0  0  0  0
   -3.2400    8.3310   20.6140 C   0  0  0  0  0  2  0  0  0  0  0  0
   -4.2030    7.1840   20.2340 C   0  0  0  0  0  2  0  0  0  0  0  0
   -3.5390    6.1550   19.3940 C   0  0  0  0  0  2  0  0  0  0  0  0
   -3.8120    4.7400   19.8920 C   0  0  0  0  0  2  0  0  0  0  0  0
   -3.0680    3.7550   19.0310 C   0  0  0  0  0  2  0  0  0  0  0  0
   -1.6040    4.0530   19.2630 C   0  0  0  0  0  0  0  0  0  0  0  0
   -1.0480    3.7510   20.3450 O   0  0  0  0  0  1  0  0  0  0  0  0
   -0.8340    4.6660   18.2860 O   0  0  0  0  0  0  0  0  0  0  0  0
   -3.7590   10.3590   19.1520 C   0  0  0  0  0  2  0  0  0  0  0  0
   -3.2280   11.4780   18.3620 C   0  0  0  0  0  2  0  0  0  0  0  0
   -2.6920   12.6500   19.0890 C   0  0  0  0  0  2  0  0  0  0  0  0
   -2.8560   13.9500   18.3280 C   0  0  0  0  0  2  0  0  0  0  0  0
   -2.2940   15.0870   19.1520 C   0  0  0  0  0  2  0  0  0  0  0  0
   -2.1610   16.3610   18.4050 C   0  0  0  0  0  2  0  0  0  0  0  0
   -3.4170   17.1600   18.2770 C   0  0  0  0  0  2  0  0  0  0  0  0
   -3.2540   18.4630   17.5650 C   0  0  0  0  0  2  0  0  0  0  0  0
   -4.4500   18.8470   16.7260 C   0  0  0  0  0  1  0  0  0  0  0  0
  1  2  1  0  0  0  0
  3  2  1  0  0  0  0
  4  5  1  0  0  0  0
  4  3  1  0  0  0  0
  6  7  1  0  0  0  0
  6  5  1  0  0  0  0
  7  8  1  0  0  0  0
  9  7  2  0  0  0  0
 10  1  1  0  0  0  0
 11 12  1  0  0  0  0
 11 10  1  0  0  0  0
 13 12  1  0  0  0  0
 13 14  1  0  0  0  0
 15 14  1  0  0  0  0
 16 15  1  0  0  0  0
 17 16  1  0  0  0  0
 18 17  1  0  0  0  0
M  END
>  <minimizedAffinity>
-3.26657152

>  <minimizedRMSD>
1.38717186

$$$$
