
 OpenBabel04082419543D

 27 30  0  0  1  0  0  0  0  0999 V2000
    4.8610   12.0600   42.1120 C   0  0  0  0  0  2  0  0  0  0  0  0
    4.0650   13.4060   40.2970 C   0  0  0  0  0  3  0  0  0  0  0  0
    4.3640   12.9530   43.0360 C   0  0  0  0  0  0  0  0  0  0  0  0
    3.9530   13.6530   45.2410 C   0  0  0  0  0  0  0  0  0  0  0  0
    3.5580   14.3160   41.1890 C   0  0  0  0  0  0  0  0  0  0  0  0
    4.5150   12.6870   44.3890 C   0  0  0  0  0  0  0  0  0  0  0  0
    3.7040   14.0920   42.5590 C   0  0  0  0  0  0  0  0  0  0  0  0
    4.7200   12.2720   40.7670 C   0  0  0  0  0  0  0  0  0  0  0  0
    3.8620   13.8220   46.6110 C   0  0  1  0  0  3  0  0  0  0  0  0
    3.3110   14.7620   44.7190 C   0  0  0  0  0  0  0  0  0  0  0  0
    2.8440   15.5480   40.7090 C   0  0  0  0  0  1  0  0  0  0  0  0
    4.3970   12.9280   47.6350 C   0  0  0  0  0  1  0  0  0  0  0  0
    5.2120   11.5700   44.9790 C   0  0  0  0  0  2  0  0  0  0  0  0
    3.1850   14.9850   43.4120 N   0  0  0  0  0  0  0  0  0  0  0  0
    2.7040   15.8170   43.0680 H   0  0  0  0  0  0  0  0  0  0  0  0
    2.8500   15.5630   45.7240 N   0  0  0  0  0  0  0  0  0  0  0  0
    2.3410   16.4410   45.6200 H   0  0  0  0  0  0  0  0  0  0  0  0
    3.1880   14.9860   46.8520 N   0  0  0  0  0  0  0  0  0  0  0  0
    2.9790   15.3540   47.7790 H   0  0  0  0  0  0  0  0  0  0  0  0
    6.6010   11.6740   45.2580 N   0  0  0  0  0  0  0  0  0  0  0  0
    7.5220   11.7930   44.1950 C   0  0  0  0  0  2  0  0  0  0  0  0
    8.9300   11.7880   44.7490 C   0  0  0  0  0  2  0  0  0  0  0  0
    9.2410   10.5660   45.3330 O   0  0  0  0  0  0  0  0  0  0  0  0
    8.1350    9.7310   45.3150 C   0  0  0  0  0  2  0  0  0  0  0  0
    6.9690   10.4130   45.9470 C   0  0  0  0  0  2  0  0  0  0  0  0
    5.2100   11.3910   39.8100 O   0  0  0  0  0  0  0  0  0  0  0  0
    6.3720   10.6250   40.0310 C   0  0  0  0  0  1  0  0  0  0  0  0
  1  3  1  0  0  0  0
  2  8  2  0  0  0  0
  2  5  1  0  0  0  0
  3  6  2  0  0  0  0
  4  9  1  0  0  0  0
  5  7  2  0  0  0  0
  6 13  1  0  0  0  0
  6  4  1  0  0  0  0
  7  3  1  0  0  0  0
  7 14  1  0  0  0  0
  8  1  1  0  0  0  0
  9 18  1  0  0  0  0
  9 12  1  6  0  0  0
 10  4  2  0  0  0  0
 10 16  1  0  0  0  0
 11  5  1  0  0  0  0
 13 20  1  0  0  0  0
 14 10  1  0  0  0  0
 15 14  1  0  0  0  0
 16 18  1  0  0  0  0
 17 16  1  0  0  0  0
 18 19  1  0  0  0  0
 20 25  1  0  0  0  0
 21 22  1  0  0  0  0
 21 20  1  0  0  0  0
 22 23  1  0  0  0  0
 24 23  1  0  0  0  0
 24 25  1  0  0  0  0
 26 27  1  0  0  0  0
 26  8  1  0  0  0  0
M  END
>  <minimizedAffinity>
-8.51940632

>  <minimizedRMSD>
0.507324576

$$$$
