
 OpenBabel04082419573D

 33 36  0  0  1  0  0  0  0  0999 V2000
    3.3810   31.2900    9.1750 N   0  0  0  0  0  0  0  0  0  0  0  0
    2.8700   31.8560    9.8530 H   0  0  0  0  0  0  0  0  0  0  0  0
    3.9730   30.8280    7.0300 N   0  0  0  0  0  0  0  0  0  0  0  0
    3.9090   31.0500    6.0370 H   0  0  0  0  0  0  0  0  0  0  0  0
    4.1190   30.2710    9.6370 C   0  0  0  0  0  2  0  0  0  0  0  0
    3.2720   31.6130    7.8780 C   0  0  2  0  0  3  0  0  0  0  0  0
    4.7280   29.8030    7.3610 C   0  0  0  0  0  0  0  0  0  0  0  0
    4.8130   29.5020    8.7310 C   0  0  0  0  0  3  0  0  0  0  0  0
    5.4540   28.9940    6.4450 N   0  0  0  0  0  0  0  0  0  0  0  0
    5.9890   28.2260    6.8520 H   0  0  0  0  0  0  0  0  0  0  0  0
    5.5200   29.1220    5.0600 C   0  0  0  0  0  0  0  0  0  0  0  0
    4.4340   29.0650    4.2430 C   0  0  0  0  0  3  0  0  0  0  0  0
    4.5180   29.2150    2.8540 C   0  0  0  0  0  3  0  0  0  0  0  0
    5.7540   29.4300    2.2850 C   0  0  0  0  0  3  0  0  0  0  0  0
    6.8710   29.4910    3.0840 C   0  0  0  0  0  3  0  0  0  0  0  0
    6.7570   29.3380    4.4610 C   0  0  0  0  0  0  0  0  0  0  0  0
    7.9880   29.3700    5.2380 C   0  0  0  0  0  0  0  0  0  0  0  0
    8.3950   28.1720    5.7830 C   0  0  0  0  0  3  0  0  0  0  0  0
    9.5360   28.1750    6.5540 C   0  0  0  0  0  3  0  0  0  0  0  0
   10.2540   29.3280    6.7750 C   0  0  0  0  0  3  0  0  0  0  0  0
    9.8630   30.5440    6.2350 C   0  0  0  0  0  3  0  0  0  0  0  0
    8.6990   30.5180    5.4570 C   0  0  0  0  0  3  0  0  0  0  0  0
    2.4970   32.6870    7.3800 N   0  0  0  0  0  0  0  0  0  0  0  0
    2.1080   33.3480    8.0510 H   0  0  0  0  0  0  0  0  0  0  0  0
    2.2320   32.8960    6.0160 C   0  0  0  0  0  0  0  0  0  0  0  0
    2.9810   32.3110    5.0290 C   0  0  0  0  0  3  0  0  0  0  0  0
    2.6300   32.5590    3.7020 C   0  0  0  0  0  3  0  0  0  0  0  0
    1.5660   33.3650    3.3750 C   0  0  0  0  0  0  0  0  0  0  0  0
    0.8300   33.9430    4.3810 C   0  0  0  0  0  3  0  0  0  0  0  0
    1.1340   33.7300    5.6920 C   0  0  0  0  0  3  0  0  0  0  0  0
    1.2050   33.6190    1.9990 C   0  0  0  0  0  0  0  0  0  0  0  0
    1.7450   32.9810    1.0710 O   0  0  0  0  0  0  0  0  0  0  0  0
    0.2570   34.5730    1.7020 O   0  0  0  0  0  1  0  0  0  0  0  0
  1  5  1  0  0  0  0
  1  2  1  0  0  0  0
  3  7  1  0  0  0  0
  3  6  1  0  0  0  0
  4  3  1  0  0  0  0
  6 23  1  1  0  0  0
  6  1  1  0  0  0  0
  7  8  2  0  0  0  0
  8  5  1  0  0  0  0
  9 10  1  0  0  0  0
  9  7  1  0  0  0  0
 11  9  1  0  0  0  0
 12 11  2  0  0  0  0
 13 12  1  0  0  0  0
 14 13  2  0  0  0  0
 14 15  1  0  0  0  0
 15 16  2  0  0  0  0
 16 11  1  0  0  0  0
 16 17  1  0  0  0  0
 17 22  2  0  0  0  0
 17 18  1  0  0  0  0
 18 19  2  0  0  0  0
 19 20  1  0  0  0  0
 21 20  2  0  0  0  0
 22 21  1  0  0  0  0
 23 24  1  0  0  0  0
 25 23  1  0  0  0  0
 26 25  2  0  0  0  0
 27 26  1  0  0  0  0
 28 27  2  0  0  0  0
 28 29  1  0  0  0  0
 29 30  2  0  0  0  0
 30 25  1  0  0  0  0
 31 28  1  0  0  0  0
 32 31  2  0  0  0  0
 33 31  1  0  0  0  0
M  END
>  <minimizedAffinity>
-9.41092587

>  <minimizedRMSD>
0.408509493

$$$$
