
 OpenBabel04082420113D

 32 34  0  0  1  0  0  0  0  0999 V2000
    3.8180   31.6360    9.3910 N   0  0  0  0  0  0  0  0  0  0  0  0
    3.4020   32.3960    9.9290 H   0  0  0  0  0  0  0  0  0  0  0  0
    4.2430   30.6320    7.3900 N   0  0  0  0  0  0  0  0  0  0  0  0
    4.1670   30.5960    6.3730 H   0  0  0  0  0  0  0  0  0  0  0  0
    4.4710   30.6880   10.0790 C   0  0  0  0  0  2  0  0  0  0  0  0
    3.6640   31.6770    8.0670 C   0  0  2  0  0  3  0  0  0  0  0  0
    4.9080   29.6570    8.0290 C   0  0  0  0  0  0  0  0  0  0  0  0
    5.0540   29.6360    9.3980 C   0  0  0  0  0  3  0  0  0  0  0  0
    5.5150   28.5820    7.2870 N   0  0  0  0  0  0  0  0  0  0  0  0
    5.6970   27.7040    7.7740 H   0  0  0  0  0  0  0  0  0  0  0  0
    5.8700   28.6750    5.9360 C   0  0  0  0  0  0  0  0  0  0  0  0
    4.8740   29.0060    5.0200 C   0  0  0  0  0  3  0  0  0  0  0  0
    5.1720   29.0960    3.6980 C   0  0  0  0  0  3  0  0  0  0  0  0
    6.4540   28.8590    3.2670 C   0  0  0  0  0  3  0  0  0  0  0  0
    7.4300   28.5330    4.1800 C   0  0  0  0  0  3  0  0  0  0  0  0
    7.1780   28.4290    5.5420 C   0  0  0  0  0  0  0  0  0  0  0  0
    8.1700   28.0990    6.4350 O   0  0  0  0  0  0  0  0  0  0  0  0
    8.8390   29.0600    7.2270 C   0  0  0  0  0  0  0  0  0  0  0  0
    8.2030   29.1870    8.4580 F   0  0  0  0  0  0  0  0  0  0  0  0
    8.7550   30.2770    6.5830 F   0  0  0  0  0  0  0  0  0  0  0  0
   10.1820   28.7560    7.4060 F   0  0  0  0  0  0  0  0  0  0  0  0
    2.9790   32.6800    7.3400 N   0  0  0  0  0  0  0  0  0  0  0  0
    2.4300   33.3590    7.8670 H   0  0  0  0  0  0  0  0  0  0  0  0
    3.0060   32.8000    5.9590 C   0  0  0  0  0  0  0  0  0  0  0  0
    1.9250   33.4130    5.3370 C   0  0  0  0  0  3  0  0  0  0  0  0
    1.8420   33.6030    3.9870 C   0  0  0  0  0  3  0  0  0  0  0  0
    2.8860   33.1640    3.2050 C   0  0  0  0  0  0  0  0  0  0  0  0
    3.9750   32.5540    3.7790 C   0  0  0  0  0  3  0  0  0  0  0  0
    4.0340   32.3700    5.1750 C   0  0  0  0  0  3  0  0  0  0  0  0
    2.7820   33.3750    1.7600 C   0  0  0  0  0  0  0  0  0  0  0  0
    1.8420   34.0700    1.3270 O   0  0  0  0  0  1  0  0  0  0  0  0
    3.6830   32.8360    0.8680 O   0  0  0  0  0  0  0  0  0  0  0  0
  1  2  1  0  0  0  0
  1  5  1  0  0  0  0
  3  7  1  0  0  0  0
  3  6  1  0  0  0  0
  4  3  1  0  0  0  0
  6 22  1  6  0  0  0
  6  1  1  0  0  0  0
  7  8  2  0  0  0  0
  8  5  1  0  0  0  0
  9 10  1  0  0  0  0
  9  7  1  0  0  0  0
 11  9  1  0  0  0  0
 12 11  2  0  0  0  0
 13 12  1  0  0  0  0
 14 13  2  0  0  0  0
 14 15  1  0  0  0  0
 15 16  2  0  0  0  0
 16 11  1  0  0  0  0
 16 17  1  0  0  0  0
 17 18  1  0  0  0  0
 18 21  1  0  0  0  0
 18 19  1  0  0  0  0
 20 18  1  0  0  0  0
 22 23  1  0  0  0  0
 24 22  1  0  0  0  0
 25 24  1  0  0  0  0
 26 25  2  0  0  0  0
 27 28  2  0  0  0  0
 27 26  1  0  0  0  0
 28 29  1  0  0  0  0
 29 24  2  0  0  0  0
 30 27  1  0  0  0  0
 31 30  1  0  0  0  0
 32 30  2  0  0  0  0
M  END
>  <minimizedAffinity>
-8.40490055

>  <minimizedRMSD>
0.868129253

$$$$
