
 OpenBabel04082420123D

 80 83  0  0  1  0  0  0  0  0999 V2000
    3.4460   32.2400   16.0830 C   0  0  0  0  0  0  0  0  0  0  0  0
    2.7240   33.2380   16.3440 O   0  0  0  0  0  0  0  0  0  0  0  0
    4.8120   32.5160   15.8610 N   0  0  0  0  0  0  0  0  0  0  0  0
    5.5090   32.0040   16.4030 H   0  0  0  0  0  0  0  0  0  0  0  0
    5.2760   33.5140   14.8800 C   0  0  1  0  0  3  0  0  0  0  0  0
    6.7540   33.2120   14.6730 C   0  0  0  0  0  2  0  0  0  0  0  0
    7.5050   33.0520   15.9180 C   0  0  0  0  0  0  0  0  0  0  0  0
    7.3740   33.8560   17.0210 C   0  0  0  0  0  3  0  0  0  0  0  0
    8.1020   33.6880   18.1800 C   0  0  0  0  0  3  0  0  0  0  0  0
    9.0110   32.6420   18.2110 C   0  0  0  0  0  3  0  0  0  0  0  0
    9.1560   31.8210   17.1110 C   0  0  0  0  0  3  0  0  0  0  0  0
    8.4270   32.0000   15.9660 C   0  0  0  0  0  3  0  0  0  0  0  0
    4.5500   33.2110   13.6160 C   0  0  0  0  0  2  0  0  0  0  0  0
    3.1550   33.6200   13.5850 N   0  0  0  0  0  4  0  0  0  0  0  0
    2.5380   32.8110   13.5110 H   0  0  0  0  0  0  0  0  0  0  0  0
    2.8570   33.9720   14.4960 H   0  0  0  0  0  0  0  0  0  0  0  0
    2.8820   34.5670   12.5580 C   0  0  1  0  0  3  0  0  0  0  0  0
    1.4150   34.6120   12.1740 C   0  0  0  0  0  2  0  0  0  0  0  0
    1.0840   33.7520   10.9980 C   0  0  0  0  0  2  0  0  0  0  0  0
   -0.6490   34.1100   10.5490 S   0  0  0  0  0  0  0  0  0  0  0  0
   -1.1520   33.3190    9.0200 C   0  0  0  0  0  1  0  0  0  0  0  0
    3.2630   35.9520   12.8800 C   0  0  0  0  0  0  0  0  0  0  0  0
    3.1030   36.4090   14.0660 O   0  0  0  0  0  0  0  0  0  0  0  0
    3.8210   36.8700   11.9570 N   0  0  0  0  0  0  0  0  0  0  0  0
    4.2020   36.5340   11.0740 H   0  0  0  0  0  0  0  0  0  0  0  0
    3.8530   38.3080   12.2700 C   0  0  1  0  0  3  0  0  0  0  0  0
    4.4470   38.9660   11.0130 C   0  0  0  0  0  1  0  0  0  0  0  0
    2.4900   38.8160   12.4060 C   0  0  0  0  0  0  0  0  0  0  0  0
    1.6690   38.8370   11.4320 O   0  0  0  0  0  0  0  0  0  0  0  0
    2.0240   39.3110   13.6510 N   0  0  0  0  0  0  0  0  0  0  0  0
    2.3690   38.8910   14.5150 H   0  0  0  0  0  0  0  0  0  0  0  0
    1.0640   40.4070   13.7230 C   0  0  2  0  0  3  0  0  0  0  0  0
   -0.3150   39.9480   13.4890 C   0  0  0  0  0  0  0  0  0  0  0  0
   -1.3260   40.8280   13.1360 O   0  0  0  0  0  0  0  0  0  0  0  0
   -0.6380   38.7280   13.6010 O   0  0  0  0  0  1  0  0  0  0  0  0
    1.5040   41.4280   12.6700 C   0  0  0  0  0  2  0  0  0  0  0  0
    2.4410   42.3900   13.3100 C   0  0  0  0  0  0  0  0  0  0  0  0
    3.4190   42.1630   14.1870 N   0  0  0  0  0  0  0  0  0  0  0  0
    4.0300   43.3330   14.5340 C   0  0  0  0  0  2  0  0  0  0  0  0
    3.6750   41.2430   14.5480 H   0  0  0  0  0  0  0  0  0  0  0  0
    3.4110   44.3080   13.8510 N   0  0  0  0  0  0  0  0  0  0  0  0
    2.4390   43.7490   13.1000 C   0  0  0  0  0  3  0  0  0  0  0  0
    3.6350   45.3020   13.8930 H   0  0  0  0  0  0  0  0  0  0  0  0
    2.8350   30.9120   16.0280 C   0  0  1  0  0  3  0  0  0  0  0  0
    2.9210   30.2910   17.3050 N   0  0  0  0  0  0  0  0  0  0  0  0
    3.6380   29.0960   17.5310 C   0  0  0  0  0  0  0  0  0  0  0  0
    3.7790   28.3430   16.5210 O   0  0  0  0  0  0  0  0  0  0  0  0
    2.4420   30.7270   18.0930 H   0  0  0  0  0  0  0  0  0  0  0  0
    4.2000   28.7310   18.8750 C   0  0  1  0  0  3  0  0  0  0  0  0
    3.3750   27.6980   19.4070 N   0  0  0  0  0  0  0  0  0  0  0  0
    2.7330   27.7110   20.6520 C   0  0  0  0  0  0  0  0  0  0  0  0
    2.8150   28.6860   21.4320 O   0  0  0  0  0  0  0  0  0  0  0  0
    3.2400   26.8710   18.8250 H   0  0  0  0  0  0  0  0  0  0  0  0
    1.9320   26.5370   21.0660 C   0  0  1  0  0  3  0  0  0  0  0  0
    2.3500   26.0670   22.3830 N   0  0  0  0  0  0  0  0  0  0  0  0
    3.2810   25.0610   22.6440 C   0  0  0  0  0  0  0  0  0  0  0  0
    3.9820   24.6080   21.6820 O   0  0  0  0  0  0  0  0  0  0  0  0
    1.9200   26.5180   23.1910 H   0  0  0  0  0  0  0  0  0  0  0  0
    3.5500   24.4380   23.9710 C   0  0  1  0  0  3  0  0  0  0  0  0
    4.6130   23.4870   23.9760 N   0  0  0  0  0  4  0  0  0  0  0  0
    5.8020   24.1130   24.4590 C   0  0  0  0  0  2  0  0  0  0  0  0
    4.3760   22.6460   24.5030 H   0  0  0  0  0  0  0  0  0  0  0  0
    4.7470   23.0530   23.0630 H   0  0  0  0  0  0  0  0  0  0  0  0
    5.4750   25.4480   25.0220 C   0  0  0  0  0  2  0  0  0  0  0  0
    3.9940   25.5760   24.8830 C   0  0  0  0  0  2  0  0  0  0  0  0
    0.4520   26.8470   21.0800 C   0  0  0  0  0  2  0  0  0  0  0  0
   -0.3640   25.6350   21.2750 C   0  0  0  0  0  0  0  0  0  0  0  0
   -1.6760   25.4480   21.3280 N   0  0  0  0  0  0  0  0  0  0  0  0
   -1.9390   24.1110   21.5080 C   0  0  0  0  0  2  0  0  0  0  0  0
   -2.3790   26.1810   21.2480 H   0  0  0  0  0  0  0  0  0  0  0  0
   -0.7660   23.4630   21.5670 N   0  0  0  0  0  0  0  0  0  0  0  0
    0.2120   24.3690   21.4280 C   0  0  0  0  0  3  0  0  0  0  0  0
   -0.6390   22.4590   21.6950 H   0  0  0  0  0  0  0  0  0  0  0  0
    5.6290   28.3760   18.7450 C   0  0  0  0  0  2  0  0  0  0  0  0
    6.3840   27.9790   19.9440 C   0  0  0  0  0  3  0  0  0  0  0  0
    7.7680   27.4960   19.8090 C   0  0  0  0  0  1  0  0  0  0  0  0
    6.2620   29.1040   20.9670 C   0  0  0  0  0  1  0  0  0  0  0  0
    1.4650   30.8810   15.4210 C   0  0  0  0  0  2  0  0  0  0  0  0
    0.9430   32.1940   15.4800 O   0  0  0  0  0  0  0  0  0  0  0  0
    0.0740   32.1740   15.0960 H   0  0  0  0  0  0  0  0  0  0  0  0
  1  2  2  0  0  0  0
  3  1  1  0  0  0  0
  3  4  1  0  0  0  0
  5 13  1  6  0  0  0
  5  3  1  0  0  0  0
  6  5  1  0  0  0  0
  6  7  1  0  0  0  0
  7 12  2  0  0  0  0
  7  8  1  0  0  0  0
  8  9  2  0  0  0  0
  9 10  1  0  0  0  0
 11 10  2  0  0  0  0
 12 11  1  0  0  0  0
 14 13  1  0  0  0  0
 14 16  1  0  0  0  0
 15 14  1  0  0  0  0
 17 18  1  1  0  0  0
 17 22  1  0  0  0  0
 17 14  1  0  0  0  0
 19 18  1  0  0  0  0
 20 19  1  0  0  0  0
 21 20  1  0  0  0  0
 22 23  2  0  0  0  0
 24 26  1  0  0  0  0
 24 22  1  0  0  0  0
 25 24  1  0  0  0  0
 26 27  1  6  0  0  0
 26 28  1  0  0  0  0
 28 30  1  0  0  0  0
 29 28  2  0  0  0  0
 30 32  1  0  0  0  0
 30 31  1  0  0  0  0
 32 36  1  6  0  0  0
 33 35  1  0  0  0  0
 33 32  1  0  0  0  0
 34 33  2  0  0  0  0
 36 37  1  0  0  0  0
 37 38  1  0  0  0  0
 38 39  1  0  0  0  0
 38 40  1  0  0  0  0
 41 43  1  0  0  0  0
 41 39  1  0  0  0  0
 42 37  2  0  0  0  0
 42 41  1  0  0  0  0
 44 78  1  1  0  0  0
 44  1  1  0  0  0  0
 44 45  1  0  0  0  0
 45 46  1  0  0  0  0
 45 48  1  0  0  0  0
 46 49  1  0  0  0  0
 47 46  2  0  0  0  0
 49 74  1  6  0  0  0
 49 50  1  0  0  0  0
 50 51  1  0  0  0  0
 51 54  1  0  0  0  0
 51 52  2  0  0  0  0
 53 50  1  0  0  0  0
 54 66  1  1  0  0  0
 54 55  1  0  0  0  0
 55 56  1  0  0  0  0
 55 58  1  0  0  0  0
 57 56  2  0  0  0  0
 59 56  1  6  0  0  0
 59 60  1  0  0  0  0
 59 65  1  0  0  0  0
 60 61  1  0  0  0  0
 60 62  1  0  0  0  0
 61 64  1  0  0  0  0
 63 60  1  0  0  0  0
 65 64  1  0  0  0  0
 66 67  1  0  0  0  0
 67 68  1  0  0  0  0
 67 72  2  0  0  0  0
 68 69  1  0  0  0  0
 69 71  1  0  0  0  0
 70 68  1  0  0  0  0
 71 73  1  0  0  0  0
 72 71  1  0  0  0  0
 74 75  1  0  0  0  0
 75 77  1  0  0  0  0
 76 75  1  0  0  0  0
 78 79  1  0  0  0  0
 80 79  1  0  0  0  0
M  END
>  <minimizedAffinity>
-7.40682602

>  <minimizedRMSD>
1.40712631

$$$$
