
 OpenBabel04082420053D

 48 51  0  0  1  0  0  0  0  0999 V2000
   15.5900  -19.9090   23.9250 C   0  0  0  0  0  0  0  0  0  0  0  0
   16.5440  -20.4720   24.7250 C   0  0  0  0  0  3  0  0  0  0  0  0
   16.3800  -20.5120   26.0790 C   0  0  0  0  0  3  0  0  0  0  0  0
   15.2280  -19.9740   26.6710 C   0  0  0  0  0  0  0  0  0  0  0  0
   14.2910  -19.4180   25.8690 C   0  0  0  0  0  3  0  0  0  0  0  0
   14.4550  -19.3760   24.4800 C   0  0  0  0  0  3  0  0  0  0  0  0
   15.1330  -20.0880   28.1150 C   0  0  0  0  0  0  0  0  0  0  0  0
   15.0480  -20.1870   29.2260 N   0  0  0  0  0  0  0  0  0  0  0  0
   15.7980  -19.9560   22.4800 C   0  0  0  0  0  2  0  0  0  0  0  0
   15.7010  -18.6960   21.8040 N   0  0  0  0  0  2  0  0  0  0  0  0
   16.8180  -17.8620   21.4870 C   0  0  0  0  0  0  0  0  0  0  0  0
   17.9120  -18.3880   21.2510 O   0  0  0  0  0  0  0  0  0  0  0  0
   16.6400  -16.3570   21.4620 C   0  0  0  0  0  2  0  0  0  0  0  0
   17.5950  -15.7450   22.4270 C   0  0  1  0  0  3  0  0  0  0  0  0
   17.6600  -14.2440   22.2970 C   0  0  0  0  0  0  0  0  0  0  0  0
   16.6200  -13.7030   22.8700 O   0  0  0  0  0  0  0  0  0  0  0  0
   18.5570  -13.3860   21.7350 N   0  0  0  0  0  0  0  0  0  0  0  0
   18.7900  -12.4600   20.6740 C   0  0  1  0  0  3  0  0  0  0  0  0
   19.9840  -13.3500   22.3080 C   0  0  0  0  0  2  0  0  0  0  0  0
   19.8860  -13.2320   19.9330 C   0  0  0  0  0  2  0  0  0  0  0  0
   20.7210  -13.8200   21.0790 C   0  0  0  0  0  2  0  0  0  0  0  0
   17.7420  -11.9300   19.8600 C   0  0  0  0  0  0  0  0  0  0  0  0
   17.9870  -11.6030   18.6780 O   0  0  0  0  0  0  0  0  0  0  0  0
   16.4180  -11.7450   20.3070 N   0  0  0  0  0  2  0  0  0  0  0  0
   15.5480  -10.6450   20.0340 C   0  0  0  0  0  2  0  0  0  0  0  0
   14.3670  -10.6300   20.9200 C   0  0  0  0  0  0  0  0  0  0  0  0
   13.7290   -9.4300   21.2320 C   0  0  0  0  0  3  0  0  0  0  0  0
   12.6530   -9.4200   22.0800 C   0  0  0  0  0  3  0  0  0  0  0  0
   12.1460  -10.5540   22.6640 C   0  0  0  0  0  0  0  0  0  0  0  0
   12.7790  -11.7420   22.3520 C   0  0  0  0  0  3  0  0  0  0  0  0
   13.8860  -11.7790   21.4820 C   0  0  0  0  0  3  0  0  0  0  0  0
   11.0160  -10.5120   23.5800 C   0  0  0  0  0  0  0  0  0  0  0  0
   10.8040   -9.4450   24.2600 N   0  0  0  0  0  2  0  0  0  0  0  0
   10.3500   -9.3790   25.1780 H   0  0  0  0  0  0  0  0  0  0  0  0
   10.1560  -11.6160   23.7520 N   0  0  0  0  0  2  0  0  0  0  0  0
   17.1450  -16.1310   23.7340 N   0  0  0  0  0  2  0  0  0  0  0  0
   17.9350  -15.9370   25.1300 S   0  0  0  0  0  0  0  0  0  0  0  0
   18.3650  -17.3570   25.6410 O   0  0  0  0  0  0  0  0  0  0  0  0
   17.0990  -15.4380   26.3010 O   0  0  0  0  0  0  0  0  0  0  0  0
   19.4180  -15.0440   25.1260 C   0  0  0  0  0  0  0  0  0  0  0  0
   20.5070  -15.6050   24.4700 C   0  0  0  0  0  3  0  0  0  0  0  0
   21.7360  -14.9870   24.4080 C   0  0  0  0  0  3  0  0  0  0  0  0
   21.9110  -13.7600   25.0180 C   0  0  0  0  0  0  0  0  0  0  0  0
   20.8530  -13.1860   25.6710 C   0  0  0  0  0  0  0  0  0  0  0  0
   21.0910  -11.6500   26.4460 Cl  0  0  0  0  0  0  0  0  0  0  0  0
   19.6090  -13.8330   25.7200 C   0  0  0  0  0  3  0  0  0  0  0  0
   23.1970  -13.2150   24.9050 O   0  0  0  0  0  0  0  0  0  0  0  0
   24.2040  -13.5680   24.0850 C   0  0  0  0  0  1  0  0  0  0  0  0
  1  6  2  0  0  0  0
  1  2  1  0  0  0  0
  2  3  2  0  0  0  0
  3  4  1  0  0  0  0
  4  7  1  0  0  0  0
  5  4  2  0  0  0  0
  6  5  1  0  0  0  0
  7  8  3  0  0  0  0
  9  1  1  0  0  0  0
 10  9  1  0  0  0  0
 11 10  1  0  0  0  0
 12 11  2  0  0  0  0
 13 11  1  0  0  0  0
 14 13  1  6  0  0  0
 14 36  1  0  0  0  0
 15 14  1  0  0  0  0
 15 16  2  0  0  0  0
 17 15  1  0  0  0  0
 17 19  1  0  0  0  0
 18 22  1  6  0  0  0
 18 17  1  0  0  0  0
 20 18  1  0  0  0  0
 20 21  1  0  0  0  0
 21 19  1  0  0  0  0
 22 24  1  0  0  0  0
 23 22  2  0  0  0  0
 25 24  1  0  0  0  0
 25 26  1  0  0  0  0
 26 27  2  0  0  0  0
 26 31  1  0  0  0  0
 27 28  1  0  0  0  0
 28 29  2  0  0  0  0
 29 32  1  0  0  0  0
 30 29  1  0  0  0  0
 31 30  2  0  0  0  0
 32 35  2  0  0  0  0
 32 33  1  0  0  0  0
 33 34  1  0  0  0  0
 36 37  1  0  0  0  0
 37 38  2  0  0  0  0
 37 39  2  0  0  0  0
 40 37  1  0  0  0  0
 40 46  1  0  0  0  0
 41 40  2  0  0  0  0
 42 41  1  0  0  0  0
 42 43  2  0  0  0  0
 43 44  1  0  0  0  0
 44 46  2  0  0  0  0
 44 45  1  0  0  0  0
 47 43  1  0  0  0  0
 48 47  1  0  0  0  0
M  END
>  <minimizedAffinity>
-9.30309486

>  <minimizedRMSD>
0.943188667

$$$$
