
 OpenBabel04082419553D

 28 31  0  0  1  0  0  0  0  0999 V2000
    4.9410   12.3440   42.2340 C   0  0  0  0  0  2  0  0  0  0  0  0
    4.0070   13.6360   40.4820 C   0  0  0  0  0  3  0  0  0  0  0  0
    4.3430   13.2000   43.1180 C   0  0  0  0  0  0  0  0  0  0  0  0
    3.9470   13.7890   45.4080 C   0  0  0  0  0  0  0  0  0  0  0  0
    3.3990   14.5080   41.3610 C   0  0  0  0  0  0  0  0  0  0  0  0
    3.5750   14.2790   42.7320 C   0  0  0  0  0  0  0  0  0  0  0  0
    4.5450   12.9360   44.4850 C   0  0  0  0  0  0  0  0  0  0  0  0
    4.7650   12.5720   40.8830 C   0  0  0  0  0  0  0  0  0  0  0  0
    3.9220   13.8170   46.7780 C   0  0  2  0  0  3  0  0  0  0  0  0
    3.1910   14.8510   44.9400 C   0  0  0  0  0  0  0  0  0  0  0  0
    2.5850   15.6470   40.8660 C   0  0  0  0  0  1  0  0  0  0  0  0
    4.5500   12.8830   47.7400 C   0  0  0  0  0  1  0  0  0  0  0  0
    3.1530   14.8930   47.1100 N   0  0  0  0  0  0  0  0  0  0  0  0
    2.9400   15.1890   48.0630 H   0  0  0  0  0  0  0  0  0  0  0  0
    2.7320   15.4900   46.0260 N   0  0  0  0  0  0  0  0  0  0  0  0
    2.1390   16.3210   46.0090 H   0  0  0  0  0  0  0  0  0  0  0  0
    3.0010   15.0990   43.6260 N   0  0  0  0  0  0  0  0  0  0  0  0
    2.4370   15.8930   43.3210 H   0  0  0  0  0  0  0  0  0  0  0  0
    5.3170   11.8540   44.8880 N   0  0  0  0  0  0  0  0  0  0  0  0
    6.7320   12.1220   45.0260 C   0  0  0  0  0  2  0  0  0  0  0  0
    7.6740   11.0620   44.6030 C   0  0  0  0  0  2  0  0  0  0  0  0
    7.2300    9.7210   44.8960 N   0  0  0  0  0  4  0  0  0  0  0  0
    6.2240    9.8700   45.9280 C   0  0  0  0  0  2  0  0  0  0  0  0
    6.9060    9.2060   44.0770 H   0  0  0  0  0  0  0  0  0  0  0  0
    7.9840    9.0820   45.1460 H   0  0  0  0  0  0  0  0  0  0  0  0
    5.0010   10.5320   45.2520 C   0  0  0  0  0  2  0  0  0  0  0  0
    5.3840   11.6880   40.0140 O   0  0  0  0  0  0  0  0  0  0  0  0
    6.2760   10.7420   40.5750 C   0  0  0  0  0  1  0  0  0  0  0  0
  1  3  1  0  0  0  0
  2  8  2  0  0  0  0
  2  5  1  0  0  0  0
  3  7  2  0  0  0  0
  4  9  1  0  0  0  0
  5  6  2  0  0  0  0
  6  3  1  0  0  0  0
  6 17  1  0  0  0  0
  7 19  1  0  0  0  0
  7  4  1  0  0  0  0
  8  1  1  0  0  0  0
  9 13  1  0  0  0  0
  9 12  1  6  0  0  0
 10  4  2  0  0  0  0
 10 15  1  0  0  0  0
 11  5  1  0  0  0  0
 13 14  1  0  0  0  0
 15 13  1  0  0  0  0
 16 15  1  0  0  0  0
 17 10  1  0  0  0  0
 18 17  1  0  0  0  0
 19 20  1  0  0  0  0
 19 26  1  0  0  0  0
 21 22  1  0  0  0  0
 21 20  1  0  0  0  0
 22 25  1  0  0  0  0
 22 23  1  0  0  0  0
 24 22  1  0  0  0  0
 26 23  1  0  0  0  0
 27 28  1  0  0  0  0
 27  8  1  0  0  0  0
M  END
>  <minimizedAffinity>
-7.42824936

>  <minimizedRMSD>
0.326200128

$$$$
