
 OpenBabel04082420143D

 36 39  0  0  0  0  0  0  0  0999 V2000
   27.1320    5.7670   59.7020 C   0  0  0  0  0  0  0  0  0  0  0  0
   28.3680    6.9910   59.9520 S   0  0  0  0  0  0  0  0  0  0  0  0
   26.0030    6.5020   59.3160 C   0  0  0  0  0  0  0  0  0  0  0  0
   26.1430    7.8250   59.2400 C   0  0  0  0  0  0  0  0  0  0  0  0
   27.3850    8.3800   59.5510 C   0  0  0  0  0  3  0  0  0  0  0  0
   27.3020    4.3580   59.8740 N   0  0  0  0  0  0  0  0  0  0  0  0
   26.4130    3.5810   60.6430 C   0  0  0  0  0  0  0  0  0  0  0  0
   25.3310    4.1220   61.0120 O   0  0  0  0  0  0  0  0  0  0  0  0
   28.0960    3.9000   59.4260 H   0  0  0  0  0  0  0  0  0  0  0  0
   26.6920    2.1710   61.0320 C   0  0  0  0  0  2  0  0  0  0  0  0
   25.4410    1.3960   61.2730 C   0  0  0  0  0  2  0  0  0  0  0  0
   25.0080    0.6270   60.1440 N   0  0  0  0  0  0  0  0  0  0  0  0
   25.4890    0.7660   59.2560 H   0  0  0  0  0  0  0  0  0  0  0  0
   23.9510   -0.3160   60.1890 C   0  0  0  0  0  0  0  0  0  0  0  0
   23.3670   -0.6520   61.4040 C   0  0  0  0  0  3  0  0  0  0  0  0
   22.3690   -1.5720   61.4480 C   0  0  0  0  0  3  0  0  0  0  0  0
   21.8840   -2.2160   60.3230 C   0  0  0  0  0  3  0  0  0  0  0  0
   22.4660   -1.8780   59.1270 C   0  0  0  0  0  3  0  0  0  0  0  0
   23.4810   -0.9460   59.0610 C   0  0  0  0  0  3  0  0  0  0  0  0
   24.7770    5.7420   59.0270 C   0  0  0  0  0  0  0  0  0  0  0  0
   23.8180    5.8200   59.8610 O   0  0  0  0  0  0  0  0  0  0  0  0
   24.5360    4.9290   57.9130 N   0  0  0  0  0  0  0  0  0  0  0  0
   25.2620    4.2660   57.6430 H   0  0  0  0  0  0  0  0  0  0  0  0
   23.3200    4.9630   57.1130 C   0  0  0  0  0  2  0  0  0  0  0  0
   22.5340    3.7210   57.1620 C   0  0  0  0  0  0  0  0  0  0  0  0
   22.9550    2.6570   57.9340 C   0  0  0  0  0  3  0  0  0  0  0  0
   22.2300    1.4750   58.0100 C   0  0  0  0  0  3  0  0  0  0  0  0
   21.0620    1.3620   57.2980 C   0  0  0  0  0  3  0  0  0  0  0  0
   20.6190    2.3950   56.5260 C   0  0  0  0  0  3  0  0  0  0  0  0
   21.3630    3.5690   56.4660 C   0  0  0  0  0  3  0  0  0  0  0  0
   25.1280    8.8100   58.7490 C   0  0  0  0  0  0  0  0  0  0  0  0
   24.0350    8.3260   58.0710 C   0  0  0  0  0  3  0  0  0  0  0  0
   23.0560    9.2040   57.6590 C   0  0  0  0  0  3  0  0  0  0  0  0
   23.1530   10.5530   57.9130 C   0  0  0  0  0  3  0  0  0  0  0  0
   24.2630   11.0070   58.5960 C   0  0  0  0  0  3  0  0  0  0  0  0
   25.2640   10.1620   59.0270 C   0  0  0  0  0  3  0  0  0  0  0  0
  1  6  1  0  0  0  0
  1  2  1  0  0  0  0
  3  1  2  0  0  0  0
  4  3  1  0  0  0  0
  4  5  2  0  0  0  0
  5  2  1  0  0  0  0
  6  7  1  0  0  0  0
  7  8  2  0  0  0  0
  7 10  1  0  0  0  0
  9  6  1  0  0  0  0
 10 11  1  0  0  0  0
 12 14  1  0  0  0  0
 12 11  1  0  0  0  0
 13 12  1  0  0  0  0
 14 15  1  0  0  0  0
 15 16  2  0  0  0  0
 17 16  1  0  0  0  0
 18 17  2  0  0  0  0
 19 18  1  0  0  0  0
 19 14  2  0  0  0  0
 20  3  1  0  0  0  0
 20 21  2  0  0  0  0
 22 20  1  0  0  0  0
 23 22  1  0  0  0  0
 24 25  1  0  0  0  0
 24 22  1  0  0  0  0
 25 26  1  0  0  0  0
 26 27  2  0  0  0  0
 28 27  1  0  0  0  0
 29 28  2  0  0  0  0
 30 29  1  0  0  0  0
 30 25  2  0  0  0  0
 31 36  1  0  0  0  0
 31  4  1  0  0  0  0
 32 31  2  0  0  0  0
 33 34  2  0  0  0  0
 33 32  1  0  0  0  0
 34 35  1  0  0  0  0
 35 36  2  0  0  0  0
M  END
>  <minimizedAffinity>
-7.72356224

>  <minimizedRMSD>
1.37360144

$$$$
