
 OpenBabel04082419543D

 13 12  0  0  1  0  0  0  0  0999 V2000
 -100.0050   39.0510   24.9620 C   0  0  0  0  0  2  0  0  0  0  0  0
 -101.3170   39.5500   25.0220 O   0  0  0  0  0  0  0  0  0  0  0  0
 -102.0700   39.6530   23.8760 C   0  0  0  0  0  0  0  0  0  0  0  0
 -103.4900   39.6750   23.8800 N   0  0  0  0  0  0  0  0  0  0  0  0
 -104.2190   39.8360   22.6440 C   0  0  0  0  0  1  0  0  0  0  0  0
 -104.2140   39.5370   25.1200 C   0  0  0  0  0  1  0  0  0  0  0  0
 -101.4390   39.7320   22.7690 O   0  0  0  0  0  0  0  0  0  0  0  0
  -99.3540   39.0250   26.3220 C   0  0  0  0  0  2  0  0  0  0  0  0
  -99.4340   37.6230   26.8820 C   0  0  1  0  0  3  0  0  0  0  0  0
  -98.0430   37.1630   27.2480 C   0  0  0  0  0  1  0  0  0  0  0  0
 -100.3570   37.5210   27.9810 N   0  0  0  0  0  0  0  0  0  0  0  0
 -100.4050   36.1820   28.5400 C   0  0  0  0  0  1  0  0  0  0  0  0
 -101.6910   37.8500   27.5440 C   0  0  0  0  0  1  0  0  0  0  0  0
  1  2  1  0  0  0  0
  1  8  1  0  0  0  0
  3  4  1  0  0  0  0
  3  2  1  0  0  0  0
  4  6  1  0  0  0  0
  5  4  1  0  0  0  0
  7  3  2  0  0  0  0
  8  9  1  0  0  0  0
  9 10  1  1  0  0  0
  9 11  1  0  0  0  0
 11 12  1  0  0  0  0
 13 11  1  0  0  0  0
M  END
>  <minimizedAffinity>
-5.01976442

>  <minimizedRMSD>
0.975812972

$$$$
