
 OpenBabel04082420113D

 23 26  0  0  0  0  0  0  0  0999 V2000
  -33.1430   31.9140    2.0790 C   0  0  0  0  0  3  0  0  0  0  0  0
  -32.3910   32.5890    3.0050 C   0  0  0  0  0  3  0  0  0  0  0  0
  -33.3500   32.3850    0.7930 C   0  0  0  0  0  0  0  0  0  0  0  0
  -32.7870   33.5750    0.4180 C   0  0  0  0  0  0  0  0  0  0  0  0
  -31.8140   33.7960    2.6360 C   0  0  0  0  0  0  0  0  0  0  0  0
  -32.0170   34.2650    1.3650 C   0  0  0  0  0  0  0  0  0  0  0  0
  -30.9270   35.8750    2.5460 C   0  0  0  0  0  2  0  0  0  0  0  0
  -31.0040   34.7080    3.3420 O   0  0  0  0  0  0  0  0  0  0  0  0
  -31.3400   35.4730    1.2560 O   0  0  0  0  0  0  0  0  0  0  0  0
  -34.1850   31.6550   -0.1280 C   0  0  0  0  0  3  0  0  0  0  0  0
  -33.8470   30.4570   -0.5570 C   0  0  0  0  0  0  0  0  0  0  0  0
  -32.6660   29.7270   -0.0710 C   0  0  0  0  0  0  0  0  0  0  0  0
  -34.4730   29.6380   -1.5750 C   0  0  0  0  0  0  0  0  0  0  0  0
  -31.7170   30.0990    0.8930 C   0  0  0  0  0  3  0  0  0  0  0  0
  -32.5890   28.5470   -0.7460 C   0  0  0  0  0  0  0  0  0  0  0  0
  -30.6550   29.2800    1.2020 C   0  0  0  0  0  3  0  0  0  0  0  0
  -30.5750   28.0860    0.5180 C   0  0  0  0  0  3  0  0  0  0  0  0
  -31.5010   27.7130   -0.4280 C   0  0  0  0  0  3  0  0  0  0  0  0
  -33.7160   28.3900   -1.6850 C   0  0  0  0  0  2  0  0  0  0  0  0
  -35.4830   29.9030   -2.2680 O   0  0  0  0  0  0  0  0  0  0  0  0
  -32.9690   34.1840   -0.8890 C   0  0  0  0  0  0  0  0  0  0  0  0
  -32.1430   34.9340   -1.4000 O   0  0  0  0  0  1  0  0  0  0  0  0
  -34.1390   33.9220   -1.6360 O   0  0  0  0  0  0  0  0  0  0  0  0
  1  2  1  0  0  0  0
  3  1  2  0  0  0  0
  4  3  1  0  0  0  0
  4  6  2  0  0  0  0
  5  2  2  0  0  0  0
  5  8  1  0  0  0  0
  6  5  1  0  0  0  0
  7  8  1  0  0  0  0
  9  6  1  0  0  0  0
  9  7  1  0  0  0  0
 10  3  1  0  0  0  0
 11 10  2  0  0  0  0
 11 12  1  0  0  0  0
 12 14  1  0  0  0  0
 13 11  1  0  0  0  0
 14 16  2  0  0  0  0
 15 18  1  0  0  0  0
 15 12  2  0  0  0  0
 17 16  1  0  0  0  0
 18 17  2  0  0  0  0
 19 13  1  0  0  0  0
 19 15  1  0  0  0  0
 20 13  2  0  0  0  0
 21  4  1  0  0  0  0
 22 21  1  0  0  0  0
 23 21  2  0  0  0  0
M  END
>  <minimizedAffinity>
-7.88503981

>  <minimizedRMSD>
0.367896855

$$$$
