
 OpenBabel04082420083D

 18 19  0  0  0  0  0  0  0  0999 V2000
  -21.5470    1.8220   14.2650 C   0  0  0  0  0  3  0  0  0  0  0  0
  -20.7170    1.2700   15.1990 C   0  0  0  0  0  3  0  0  0  0  0  0
  -22.3730    2.9010   14.5960 C   0  0  0  0  0  3  0  0  0  0  0  0
  -21.5320    2.8610   16.7780 C   0  0  0  0  0  3  0  0  0  0  0  0
  -20.7160    1.8010   16.4640 C   0  0  0  0  0  0  0  0  0  0  0  0
  -22.3800    3.4390   15.8580 C   0  0  0  0  0  0  0  0  0  0  0  0
  -23.2220    4.5250   16.1720 N   0  0  0  0  0  0  0  0  0  0  0  0
  -23.4530    4.8080   17.5690 C   0  0  0  0  0  2  0  0  0  0  0  0
  -24.0440    6.1480   17.8470 C   0  0  0  0  0  2  0  0  0  0  0  0
  -25.0890    6.5520   16.9550 N   0  0  0  0  0  0  0  0  0  0  0  0
  -25.2410    5.7040   15.8020 C   0  0  0  0  0  2  0  0  0  0  0  0
  -26.3770    6.5840   17.6370 C   0  0  0  0  0  1  0  0  0  0  0  0
  -23.8750    5.3770   15.2120 C   0  0  0  0  0  2  0  0  0  0  0  0
  -19.8290    1.2320   17.5090 C   0  0  0  0  0  2  0  0  0  0  0  0
  -19.3090    2.3290   18.3530 N   0  0  0  0  0  4  0  0  0  0  0  0
  -18.8470    3.0540   17.8060 H   0  0  0  0  0  0  0  0  0  0  0  0
  -20.0550    2.9010   18.7480 H   0  0  0  0  0  0  0  0  0  0  0  0
  -18.7000    1.9370   19.0710 H   0  0  0  0  0  0  0  0  0  0  0  0
  1  3  2  0  0  0  0
  1  2  1  0  0  0  0
  2  5  2  0  0  0  0
  3  6  1  0  0  0  0
  5  4  1  0  0  0  0
  5 14  1  0  0  0  0
  6  7  1  0  0  0  0
  6  4  2  0  0  0  0
  7  8  1  0  0  0  0
  8  9  1  0  0  0  0
 10 12  1  0  0  0  0
 10  9  1  0  0  0  0
 11 10  1  0  0  0  0
 13 11  1  0  0  0  0
 13  7  1  0  0  0  0
 14 15  1  0  0  0  0
 15 17  1  0  0  0  0
 15 18  1  0  0  0  0
 16 15  1  0  0  0  0
M  END
>  <minimizedAffinity>
-4.75188732

>  <minimizedRMSD>
0.409144014

$$$$
