
 OpenBabel04082420013D

 31 33  0  0  1  0  0  0  0  0999 V2000
   91.7360   93.4650  -45.3290 C   0  0  0  0  0  0  0  0  0  0  0  0
   90.7240   95.6230  -45.1300 C   0  0  0  0  0  0  0  0  0  0  0  0
   92.0230   93.4370  -44.1250 C   0  0  0  0  0  3  0  0  0  0  0  0
   91.0340   94.6030  -45.9830 C   0  0  0  0  0  3  0  0  0  0  0  0
   91.7190   94.4830  -43.1980 C   0  0  0  0  0  0  0  0  0  0  0  0
   91.0700   95.5460  -43.7750 C   0  0  0  0  0  0  0  0  0  0  0  0
   92.1960   94.2710  -41.1930 I   0  0  0  0  0  0  0  0  0  0  0  0
   89.9190   96.8120  -45.5910 C   0  0  0  0  0  2  0  0  0  0  0  0
   90.7780   97.9890  -45.5460 N   0  0  0  0  0  0  0  0  0  0  0  0
   92.0870   97.6530  -45.0380 C   0  0  0  0  0  2  0  0  0  0  0  0
   93.0830   98.7730  -45.2880 C   0  0  0  0  0  2  0  0  0  0  0  0
   92.4200  100.1300  -45.1250 C   0  0  2  0  0  3  0  0  0  0  0  0
   91.2820   99.9520  -44.2430 C   0  0  0  0  0  2  0  0  0  0  0  0
   90.2320   99.0290  -44.7940 C   0  0  0  0  0  2  0  0  0  0  0  0
   92.3040  100.8210  -46.3610 N   0  0  0  0  0  0  0  0  0  0  0  0
   91.9900  102.2330  -46.2360 C   0  0  0  0  0  2  0  0  0  0  0  0
   92.9290  103.0680  -45.4700 C   0  0  0  0  0  1  0  0  0  0  0  0
   91.3230  100.3130  -47.2850 C   0  0  0  0  0  2  0  0  0  0  0  0
   90.9580  101.2530  -48.4070 C   0  0  0  0  0  1  0  0  0  0  0  0
   90.7390   96.6140  -42.9250 O   0  0  0  0  0  0  0  0  0  0  0  0
   90.9740   96.5610  -42.0060 H   0  0  0  0  0  0  0  0  0  0  0  0
   91.7480   92.3480  -46.3030 C   0  0  0  0  0  0  0  0  0  0  0  0
   91.7360   91.4050  -47.1240 C   0  0  0  0  0  0  0  0  0  0  0  0
   91.7040   90.3240  -48.0890 C   0  0  0  0  0  2  0  0  0  0  0  0
   90.4960   90.3470  -48.7980 O   0  0  0  0  0  0  0  0  0  0  0  0
   90.2480   91.0430  -49.9680 C   0  0  0  0  0  0  0  0  0  0  0  0
   89.0920   90.6650  -50.6870 C   0  0  0  0  0  3  0  0  0  0  0  0
   88.7410   91.2410  -51.8640 C   0  0  0  0  0  3  0  0  0  0  0  0
   89.5390   92.2570  -52.3890 C   0  0  0  0  0  3  0  0  0  0  0  0
   90.6800   92.6450  -51.6940 C   0  0  0  0  0  3  0  0  0  0  0  0
   90.9930   92.0200  -50.5150 C   0  0  0  0  0  3  0  0  0  0  0  0
  1  3  1  0  0  0  0
  2  6  2  0  0  0  0
  3  5  2  0  0  0  0
  4  1  2  0  0  0  0
  4  2  1  0  0  0  0
  5  7  1  0  0  0  0
  6  5  1  0  0  0  0
  6 20  1  0  0  0  0
  8  9  1  0  0  0  0
  8  2  1  0  0  0  0
  9 10  1  0  0  0  0
  9 14  1  0  0  0  0
 11 12  1  0  0  0  0
 11 10  1  0  0  0  0
 12 15  1  6  0  0  0
 12 13  1  0  0  0  0
 14 13  1  0  0  0  0
 15 16  1  0  0  0  0
 16 17  1  0  0  0  0
 18 15  1  0  0  0  0
 19 18  1  0  0  0  0
 20 21  1  0  0  0  0
 22  1  1  0  0  0  0
 23 22  3  0  0  0  0
 24 23  1  0  0  0  0
 25 24  1  0  0  0  0
 26 25  1  0  0  0  0
 27 26  2  0  0  0  0
 28 27  1  0  0  0  0
 29 28  2  0  0  0  0
 29 30  1  0  0  0  0
 30 31  2  0  0  0  0
 31 26  1  0  0  0  0
M  END
>  <minimizedAffinity>
-4.3892498

>  <minimizedRMSD>
0.846759498

$$$$
