
 OpenBabel04082420053D

 22 23  0  0  1  0  0  0  0  0999 V2000
   -7.3200   34.1690   -1.2430 C   0  0  0  0  0  0  0  0  0  0  0  0
   -7.8180   33.4110   -0.1320 N   0  0  0  0  0  0  0  0  0  0  0  0
   -7.9580   33.8810    1.2000 C   0  0  1  0  0  3  0  0  0  0  0  0
   -8.9430   32.9030    1.8070 C   0  0  0  0  0  2  0  0  0  0  0  0
   -8.5920   31.5810    1.1070 C   0  0  2  0  0  3  0  0  0  0  0  0
   -8.2420   32.0610   -0.2550 C   0  0  0  0  0  2  0  0  0  0  0  0
   -6.7310   35.2790   -1.1070 O   0  0  0  0  0  0  0  0  0  0  0  0
   -7.4930   33.6480   -2.6010 C   0  0  0  0  0  2  0  0  0  0  0  0
   -8.6370   34.2950   -3.2970 C   0  0  2  0  0  3  0  0  0  0  0  0
   -9.8040   33.7580   -3.5800 O   0  0  0  0  0  0  0  0  0  0  0  0
  -10.5550   34.6270   -4.1960 N   0  0  0  0  0  0  0  0  0  0  0  0
   -9.9130   35.7850   -4.3500 C   0  0  0  0  0  0  0  0  0  0  0  0
  -11.5060   34.4450   -4.5180 H   0  0  0  0  0  0  0  0  0  0  0  0
  -10.3740   37.0520   -4.9910 C   0  0  0  0  0  1  0  0  0  0  0  0
   -8.6660   35.6050   -3.7780 C   0  0  0  0  0  3  0  0  0  0  0  0
   -6.6780   33.9040    1.9540 C   0  0  0  0  0  0  0  0  0  0  0  0
   -6.6030   33.9150    3.3580 N   0  0  0  0  0  0  0  0  0  0  0  0
   -5.5940   34.5870    4.1250 C   0  0  0  0  0  1  0  0  0  0  0  0
   -7.3200   33.4040    3.8710 H   0  0  0  0  0  0  0  0  0  0  0  0
   -5.6130   33.9160    1.2880 O   0  0  0  0  0  0  0  0  0  0  0  0
   -9.6840   30.7160    1.1370 O   0  0  0  0  0  0  0  0  0  0  0  0
   -9.4670   29.8980    0.7040 H   0  0  0  0  0  0  0  0  0  0  0  0
  1  7  2  0  0  0  0
  1  2  1  0  0  0  0
  2  3  1  0  0  0  0
  3  4  1  0  0  0  0
  3 16  1  1  0  0  0
  5 21  1  6  0  0  0
  5  4  1  0  0  0  0
  6  2  1  0  0  0  0
  6  5  1  0  0  0  0
  8  1  1  0  0  0  0
  9  8  1  6  0  0  0
 10  9  1  0  0  0  0
 11 10  1  0  0  0  0
 12 11  1  0  0  0  0
 12 15  2  0  0  0  0
 13 11  1  0  0  0  0
 14 12  1  0  0  0  0
 15  9  1  0  0  0  0
 16 17  1  0  0  0  0
 17 19  1  0  0  0  0
 17 18  1  0  0  0  0
 20 16  2  0  0  0  0
 22 21  1  0  0  0  0
M  END
>  <minimizedAffinity>
-5.46545935

>  <minimizedRMSD>
0.83395344

$$$$
