
 OpenBabel04082420003D

 38 41  0  0  0  0  0  0  0  0999 V2000
   36.6570  -32.4860   -5.7170 C   0  0  0  0  0  0  0  0  0  0  0  0
   36.7330  -33.6630   -4.9900 C   0  0  0  0  0  0  0  0  0  0  0  0
   36.7030  -31.3110   -5.0180 C   0  0  0  0  0  3  0  0  0  0  0  0
   36.8510  -33.6050   -3.6040 C   0  0  0  0  0  3  0  0  0  0  0  0
   36.8200  -31.2370   -3.6270 C   0  0  0  0  0  0  0  0  0  0  0  0
   36.8950  -32.4080   -2.9220 C   0  0  0  0  0  0  0  0  0  0  0  0
   36.5020  -33.7050   -7.7600 C   0  0  0  0  0  3  0  0  0  0  0  0
   36.5770  -34.8710   -7.0260 C   0  0  0  0  0  3  0  0  0  0  0  0
   36.5410  -32.5040   -7.1060 C   0  0  0  0  0  3  0  0  0  0  0  0
   36.6920  -34.8710   -5.6580 C   0  0  0  0  0  3  0  0  0  0  0  0
   37.0610  -32.4600   -1.4640 C   0  0  0  0  0  2  0  0  0  0  0  0
   35.9920  -33.1470   -0.7740 N   0  0  0  0  0  0  0  0  0  0  0  0
   36.2770  -33.0500    0.6690 C   0  0  0  0  0  1  0  0  0  0  0  0
   34.7120  -32.5210   -1.0320 C   0  0  0  0  0  2  0  0  0  0  0  0
   33.6610  -32.9730   -0.0980 C   0  0  0  0  0  0  0  0  0  0  0  0
   33.3410  -32.2930    1.0810 C   0  0  0  0  0  3  0  0  0  0  0  0
   32.3700  -32.7090    1.9550 C   0  0  0  0  0  3  0  0  0  0  0  0
   31.6590  -33.8490    1.6820 C   0  0  0  0  0  3  0  0  0  0  0  0
   31.9360  -34.5430    0.5460 C   0  0  0  0  0  0  0  0  0  0  0  0
   32.9340  -34.1190   -0.3550 C   0  0  0  0  0  0  0  0  0  0  0  0
   31.2270  -35.6920    0.2620 O   0  0  0  0  0  0  0  0  0  0  0  0
   30.2070  -36.1480    1.1150 C   0  0  0  0  0  1  0  0  0  0  0  0
   33.1500  -34.9280   -1.5410 C   0  0  0  0  0  0  0  0  0  0  0  0
   34.3040  -35.2840   -1.8870 O   0  0  0  0  0  1  0  0  0  0  0  0
   32.1040  -35.3370   -2.3390 O   0  0  0  0  0  0  0  0  0  0  0  0
   36.8200  -29.9080   -3.0110 C   0  0  0  0  0  0  0  0  0  0  0  0
   36.1080  -28.8200   -3.5820 N   0  0  0  0  0  0  0  0  0  0  0  0
   36.6480  -27.9880   -3.8200 H   0  0  0  0  0  0  0  0  0  0  0  0
   37.4580  -29.7290   -1.9640 O   0  0  0  0  0  0  0  0  0  0  0  0
   34.6970  -28.7850   -3.8570 C   0  0  0  0  0  2  0  0  0  0  0  0
   33.8850  -28.9500   -2.6140 C   0  0  0  0  0  0  0  0  0  0  0  0
   34.2700  -28.2440   -1.4940 C   0  0  0  0  0  3  0  0  0  0  0  0
   33.5780  -28.3220   -0.3000 C   0  0  0  0  0  3  0  0  0  0  0  0
   32.4610  -29.1270   -0.1970 C   0  0  0  0  0  0  0  0  0  0  0  0
   32.0970  -29.8190   -1.3150 C   0  0  0  0  0  3  0  0  0  0  0  0
   32.7790  -29.7580   -2.5330 C   0  0  0  0  0  3  0  0  0  0  0  0
   31.8090  -29.1700    1.0100 O   0  0  0  0  0  0  0  0  0  0  0  0
   30.5350  -29.7170    1.2340 C   0  0  0  0  0  1  0  0  0  0  0  0
  1  3  2  0  0  0  0
  1  2  1  0  0  0  0
  2  4  2  0  0  0  0
  3  5  1  0  0  0  0
  4  6  1  0  0  0  0
  5 26  1  0  0  0  0
  5  6  2  0  0  0  0
  6 11  1  0  0  0  0
  7  9  2  0  0  0  0
  7  8  1  0  0  0  0
  8 10  2  0  0  0  0
  9  1  1  0  0  0  0
 10  2  1  0  0  0  0
 11 12  1  0  0  0  0
 12 13  1  0  0  0  0
 14 12  1  0  0  0  0
 14 15  1  0  0  0  0
 15 16  1  0  0  0  0
 16 17  2  0  0  0  0
 18 17  1  0  0  0  0
 19 18  2  0  0  0  0
 20 15  2  0  0  0  0
 20 19  1  0  0  0  0
 21 19  1  0  0  0  0
 21 22  1  0  0  0  0
 23 20  1  0  0  0  0
 24 23  1  0  0  0  0
 25 23  2  0  0  0  0
 26 29  2  0  0  0  0
 27 26  1  0  0  0  0
 28 27  1  0  0  0  0
 30 27  1  0  0  0  0
 30 31  1  0  0  0  0
 31 36  2  0  0  0  0
 31 32  1  0  0  0  0
 32 33  2  0  0  0  0
 33 34  1  0  0  0  0
 34 37  1  0  0  0  0
 35 34  2  0  0  0  0
 36 35  1  0  0  0  0
 37 38  1  0  0  0  0
M  END
>  <minimizedAffinity>
-7.01798201

>  <minimizedRMSD>
1.05480528

$$$$
