
 OpenBabel04082420093D

 19 19  0  0  1  0  0  0  0  0999 V2000
    2.9170   13.3890   22.1900 C   0  0  1  0  0  3  0  0  0  0  0  0
    3.0260   11.8670   22.2910 C   0  0  1  0  0  3  0  0  0  0  0  0
    1.9620   11.4920   23.3340 C   0  0  0  0  0  2  0  0  0  0  0  0
    2.6880   11.7500   24.6590 C   0  0  1  0  0  0  0  0  0  0  0  0
    3.1420   13.1580   24.6350 C   0  0  0  0  0  3  0  0  0  0  0  0
    3.2550   13.9200   23.5380 C   0  0  0  0  0  0  0  0  0  0  0  0
    1.8420   11.4660   25.8120 C   0  0  0  0  0  0  0  0  0  0  0  0
    2.1970   11.7370   26.9810 O   0  0  0  0  0  1  0  0  0  0  0  0
    0.6060   10.8790   25.6190 O   0  0  0  0  0  0  0  0  0  0  0  0
    3.7880   10.8640   24.6260 O   0  0  0  0  0  0  0  0  0  0  0  0
    4.2380   11.0240   25.4470 H   0  0  0  0  0  0  0  0  0  0  0  0
    2.8020   11.2470   21.0810 O   0  0  0  0  0  0  0  0  0  0  0  0
    2.8690   10.3020   21.1440 H   0  0  0  0  0  0  0  0  0  0  0  0
    3.7230   15.3320   23.7470 C   0  0  0  0  0  2  0  0  0  0  0  0
    3.4480   15.8730   25.1050 C   0  0  0  0  0  2  0  0  0  0  0  0
    3.3180   17.2780   24.9400 O   0  0  0  0  0  0  0  0  0  0  0  0
    3.1430   17.6230   25.8070 H   0  0  0  0  0  0  0  0  0  0  0  0
    3.7100   13.8770   21.1750 O   0  0  0  0  0  0  0  0  0  0  0  0
    3.6430   14.8230   21.1130 H   0  0  0  0  0  0  0  0  0  0  0  0
  1 18  1  6  0  0  0
  1  2  1  0  0  0  0
  1  6  1  0  0  0  0
  2 12  1  6  0  0  0
  2  3  1  0  0  0  0
  3  4  1  0  0  0  0
  4 10  1  1  0  0  0
  4  7  1  0  0  0  0
  5  4  1  0  0  0  0
  6 14  1  0  0  0  0
  6  5  2  0  0  0  0
  7  8  1  0  0  0  0
  9  7  2  0  0  0  0
 10 11  1  0  0  0  0
 12 13  1  0  0  0  0
 14 15  1  0  0  0  0
 16 15  1  0  0  0  0
 16 17  1  0  0  0  0
 19 18  1  0  0  0  0
M  END
>  <minimizedAffinity>
-6.52473927

>  <minimizedRMSD>
0.385204971

$$$$
