
 OpenBabel04082420083D

 43 47  0  0  1  0  0  0  0  0999 V2000
  -26.0400  -53.5610  -11.0720 C   0  0  2  0  0  3  0  0  0  0  0  0
  -26.7140  -53.9580   -9.8730 N   0  0  0  0  0  0  0  0  0  0  0  0
  -26.5840  -55.2260   -9.2470 C   0  0  0  0  0  0  0  0  0  0  0  0
  -25.6420  -55.9560   -9.6530 O   0  0  0  0  0  0  0  0  0  0  0  0
  -27.3360  -53.2780   -9.4350 H   0  0  0  0  0  0  0  0  0  0  0  0
  -27.4710  -55.6950   -8.1880 C   0  0  0  0  0  0  0  0  0  0  0  0
  -28.6580  -55.0360   -7.9560 C   0  0  0  0  0  3  0  0  0  0  0  0
  -29.5540  -55.3990   -6.9880 C   0  0  0  0  0  3  0  0  0  0  0  0
  -29.2720  -56.4940   -6.1760 C   0  0  0  0  0  0  0  0  0  0  0  0
  -28.0900  -57.1680   -6.3900 C   0  0  0  0  0  0  0  0  0  0  0  0
  -30.1430  -56.8690   -5.2140 N   0  0  0  0  0  0  0  0  0  0  0  0
  -27.1890  -56.7780   -7.3880 C   0  0  0  0  0  3  0  0  0  0  0  0
  -27.8080  -58.2590   -5.5820 C   0  0  0  0  0  0  0  0  0  0  0  0
  -28.7010  -58.6250   -4.6110 C   0  0  0  0  0  3  0  0  0  0  0  0
  -29.8720  -57.9150   -4.4410 C   0  0  0  0  0  0  0  0  0  0  0  0
  -30.6850  -58.2770   -3.5310 O   0  0  0  0  0  0  0  0  0  0  0  0
  -31.0100  -56.3480   -5.0810 H   0  0  0  0  0  0  0  0  0  0  0  0
  -26.6100  -58.9210   -5.8180 O   0  0  0  0  0  0  0  0  0  0  0  0
  -26.4170  -59.6690   -5.2640 H   0  0  0  0  0  0  0  0  0  0  0  0
  -25.2940  -52.2940  -10.9560 C   0  0  0  0  0  0  0  0  0  0  0  0
  -25.6830  -51.5000  -10.0450 O   0  0  0  0  0  0  0  0  0  0  0  0
  -24.2170  -51.9110  -11.7550 N   0  0  0  0  0  0  0  0  0  0  0  0
  -24.1080  -52.3060  -12.6890 H   0  0  0  0  0  0  0  0  0  0  0  0
  -23.2590  -50.9590  -11.2570 C   0  0  0  0  0  2  0  0  0  0  0  0
  -21.8680  -51.3710  -11.4370 C   0  0  0  0  0  0  0  0  0  0  0  0
  -21.5250  -52.7000  -11.5200 C   0  0  0  0  0  3  0  0  0  0  0  0
  -20.2020  -53.0990  -11.6910 C   0  0  0  0  0  3  0  0  0  0  0  0
  -19.2010  -52.1590  -11.7820 C   0  0  0  0  0  3  0  0  0  0  0  0
  -19.5270  -50.8350  -11.7030 C   0  0  1  0  0  3  0  0  0  0  0  0
  -20.8590  -50.4450  -11.5310 C   0  0  0  0  0  0  0  0  0  0  0  0
  -18.5440  -49.9220  -11.7930 N   0  0  0  0  0  0  0  0  0  0  0  0
  -21.1430  -49.1140  -11.4550 C   0  0  0  0  0  3  0  0  0  0  0  0
  -20.1310  -48.1820  -11.5490 C   0  0  0  0  0  3  0  0  0  0  0  0
  -18.8070  -48.6050  -11.7210 C   0  0  0  0  0  0  0  0  0  0  0  0
  -17.8000  -47.6160  -11.8130 N   0  0  0  0  0  1  0  0  0  0  0  0
  -17.5810  -50.2340  -11.9190 H   0  0  0  0  0  0  0  0  0  0  0  0
  -27.1350  -53.3340  -12.1210 C   0  0  0  0  0  2  0  0  0  0  0  0
  -27.8950  -54.5530  -12.3950 C   0  0  0  0  0  0  0  0  0  0  0  0
  -27.2680  -55.6510  -12.9330 C   0  0  0  0  0  3  0  0  0  0  0  0
  -27.9800  -56.8250  -13.2020 C   0  0  0  0  0  3  0  0  0  0  0  0
  -29.3180  -56.8830  -12.9280 C   0  0  0  0  0  3  0  0  0  0  0  0
  -29.9580  -55.8090  -12.3960 C   0  0  0  0  0  3  0  0  0  0  0  0
  -29.2350  -54.6380  -12.1300 C   0  0  0  0  0  3  0  0  0  0  0  0
  1 37  1  6  0  0  0
  1 20  1  0  0  0  0
  1  2  1  0  0  0  0
  2  5  1  0  0  0  0
  2  3  1  0  0  0  0
  3  6  1  0  0  0  0
  4  3  2  0  0  0  0
  6  7  2  0  0  0  0
  6 12  1  0  0  0  0
  7  8  1  0  0  0  0
  8  9  2  0  0  0  0
  9 11  1  0  0  0  0
 10  9  1  0  0  0  0
 10 13  1  0  0  0  0
 11 17  1  0  0  0  0
 11 15  1  0  0  0  0
 12 10  2  0  0  0  0
 13 14  2  0  0  0  0
 14 15  1  0  0  0  0
 15 16  2  0  0  0  0
 18 13  1  0  0  0  0
 18 19  1  0  0  0  0
 20 21  2  0  0  0  0
 22 24  1  0  0  0  0
 22 20  1  0  0  0  0
 23 22  1  0  0  0  0
 25 24  1  0  0  0  0
 26 25  2  0  0  0  0
 27 26  1  0  0  0  0
 28 27  2  0  0  0  0
 29 28  1  1  0  0  0
 29 30  1  0  0  0  0
 30 32  2  0  0  0  0
 30 25  1  0  0  0  0
 31 34  1  0  0  0  0
 31 29  1  0  0  0  0
 33 32  1  0  0  0  0
 34 33  2  0  0  0  0
 35 34  1  0  0  0  0
 36 31  1  0  0  0  0
 38 43  1  0  0  0  0
 38 37  1  0  0  0  0
 39 38  2  0  0  0  0
 40 39  1  0  0  0  0
 40 41  2  0  0  0  0
 41 42  1  0  0  0  0
 42 43  2  0  0  0  0
M  END
>  <minimizedAffinity>
-10.023695

>  <minimizedRMSD>
0.288598239

$$$$
