
 OpenBabel04082419593D

 45 49  0  0  1  0  0  0  0  0999 V2000
  -51.2740  -10.9650  -24.6040 C   0  0  2  0  0  3  0  0  0  0  0  0
  -50.6980  -10.9460  -23.2640 N   0  0  0  0  0  0  0  0  0  0  0  0
  -49.7780   -9.9710  -22.8380 C   0  0  0  0  0  0  0  0  0  0  0  0
  -49.3920   -9.1530  -23.7250 O   0  0  0  0  0  0  0  0  0  0  0  0
  -50.9750  -11.6730  -22.6050 H   0  0  0  0  0  0  0  0  0  0  0  0
  -49.2550   -9.8430  -21.4780 C   0  0  0  0  0  2  0  0  0  0  0  0
  -48.5640  -10.7700  -20.8830 C   0  0  0  0  0  2  0  0  0  0  0  0
  -47.5890  -10.5170  -19.8610 C   0  0  0  0  0  0  0  0  0  0  0  0
  -46.2340  -10.5700  -20.0980 C   0  0  0  0  0  3  0  0  0  0  0  0
  -45.3050  -10.3200  -19.0880 C   0  0  0  0  0  0  0  0  0  0  0  0
  -45.7520  -10.0140  -17.8230 C   0  0  0  0  0  3  0  0  0  0  0  0
  -43.5930  -10.4040  -19.4650 Cl  0  0  0  0  0  0  0  0  0  0  0  0
  -47.0950   -9.9500  -17.5350 C   0  0  0  0  0  3  0  0  0  0  0  0
  -47.9890  -10.2000  -18.5490 C   0  0  0  0  0  0  0  0  0  0  0  0
  -49.3770  -10.1400  -18.2770 N   0  0  0  0  0  0  0  0  0  0  0  0
  -50.1260  -11.0350  -17.6250 C   0  0  0  0  0  2  0  0  0  0  0  0
  -51.3920  -10.5860  -17.5910 N   0  0  0  0  0  0  0  0  0  0  0  0
  -51.4140   -9.4250  -18.2180 N   0  0  0  0  0  2  0  0  0  0  0  0
  -52.1890  -11.0570  -17.1600 H   0  0  0  0  0  0  0  0  0  0  0  0
  -50.1690   -9.1540  -18.6390 N   0  0  0  0  0  0  0  0  0  0  0  0
  -49.8850   -8.3210  -19.1550 H   0  0  0  0  0  0  0  0  0  0  0  0
  -52.4330  -10.0040  -24.6790 C   0  0  0  0  0  0  0  0  0  0  0  0
  -53.2690   -9.9760  -23.7540 O   0  0  0  0  0  0  0  0  0  0  0  0
  -52.5710   -9.1510  -25.7730 N   0  0  0  0  0  0  0  0  0  0  0  0
  -51.8560   -9.2250  -26.4950 H   0  0  0  0  0  0  0  0  0  0  0  0
  -53.5940   -8.1890  -25.9970 C   0  0  0  0  0  0  0  0  0  0  0  0
  -53.7170   -7.6190  -27.2740 C   0  0  0  0  0  3  0  0  0  0  0  0
  -54.6790   -6.6840  -27.5680 C   0  0  0  0  0  3  0  0  0  0  0  0
  -55.5850   -6.2460  -26.6320 C   0  0  0  0  0  0  0  0  0  0  0  0
  -55.4780   -6.7940  -25.3780 C   0  0  0  0  0  3  0  0  0  0  0  0
  -54.4970   -7.7510  -25.0650 C   0  0  0  0  0  3  0  0  0  0  0  0
  -56.6130   -5.2560  -26.9190 C   0  0  1  0  0  3  0  0  0  0  0  0
  -57.0760   -4.8700  -28.1330 N   0  0  0  0  0  0  0  0  0  0  0  0
  -58.0130   -3.9470  -27.9940 N   0  0  0  0  0  0  0  0  0  0  0  0
  -56.7490   -5.2390  -29.0250 H   0  0  0  0  0  0  0  0  0  0  0  0
  -58.1610   -3.7320  -26.6960 N   0  0  0  0  0  0  0  0  0  0  0  0
  -57.3180   -4.5200  -26.0380 N   0  0  0  0  0  0  0  0  0  0  0  0
  -57.2210   -4.5620  -25.0230 H   0  0  0  0  0  0  0  0  0  0  0  0
  -51.6890  -12.3660  -24.8810 C   0  0  0  0  0  2  0  0  0  0  0  0
  -51.9230  -12.7110  -26.2810 C   0  0  0  0  0  0  0  0  0  0  0  0
  -52.6470  -13.8480  -26.5700 C   0  0  0  0  0  3  0  0  0  0  0  0
  -52.9090  -14.2330  -27.8850 C   0  0  0  0  0  3  0  0  0  0  0  0
  -52.4430  -13.4770  -28.9280 C   0  0  0  0  0  3  0  0  0  0  0  0
  -51.7230  -12.3460  -28.6560 C   0  0  0  0  0  3  0  0  0  0  0  0
  -51.4670  -11.9700  -27.3530 C   0  0  0  0  0  3  0  0  0  0  0  0
  1 39  1  1  0  0  0
  1  2  1  0  0  0  0
  2  3  1  0  0  0  0
  2  5  1  0  0  0  0
  3  6  1  0  0  0  0
  4  3  2  0  0  0  0
  6  7  1  0  0  0  0
  7  8  1  0  0  0  0
  8 14  1  0  0  0  0
  9  8  2  0  0  0  0
  9 10  1  0  0  0  0
 10 11  2  0  0  0  0
 11 13  1  0  0  0  0
 12 10  1  0  0  0  0
 14 15  1  0  0  0  0
 14 13  2  0  0  0  0
 15 16  1  0  0  0  0
 16 17  1  0  0  0  0
 17 19  1  0  0  0  0
 18 17  1  0  0  0  0
 20 15  1  0  0  0  0
 20 18  1  0  0  0  0
 21 20  1  0  0  0  0
 22  1  1  0  0  0  0
 22 23  2  0  0  0  0
 24 22  1  0  0  0  0
 25 24  1  0  0  0  0
 26 24  1  0  0  0  0
 26 31  1  0  0  0  0
 27 26  2  0  0  0  0
 28 27  1  0  0  0  0
 28 29  2  0  0  0  0
 29 30  1  0  0  0  0
 30 31  2  0  0  0  0
 32 29  1  1  0  0  0
 32 37  1  0  0  0  0
 33 34  1  0  0  0  0
 33 32  1  0  0  0  0
 34 36  2  0  0  0  0
 35 33  1  0  0  0  0
 36 37  1  0  0  0  0
 37 38  1  0  0  0  0
 40 39  1  0  0  0  0
 41 40  1  0  0  0  0
 42 41  2  0  0  0  0
 43 44  2  0  0  0  0
 43 42  1  0  0  0  0
 44 45  1  0  0  0  0
 45 40  2  0  0  0  0
M  END
>  <minimizedAffinity>
-11.2985506

>  <minimizedRMSD>
0.548577249

$$$$
