
 OpenBabel04082420133D

 29 31  0  0  0  0  0  0  0  0999 V2000
   -6.8210   54.7640   12.7010 C   0  0  0  0  0  0  0  0  0  0  0  0
   -5.4940   54.6360   12.4580 C   0  0  0  0  0  3  0  0  0  0  0  0
   -4.6200   53.8740   13.2160 C   0  0  0  0  0  0  0  0  0  0  0  0
   -5.1480   53.1980   14.2950 C   0  0  0  0  0  3  0  0  0  0  0  0
   -6.5050   53.3020   14.5800 C   0  0  0  0  0  3  0  0  0  0  0  0
   -7.3290   54.0670   13.8030 C   0  0  0  0  0  3  0  0  0  0  0  0
   -7.7490   55.5270   11.9590 N   0  0  0  0  0  0  0  0  0  0  0  0
   -8.8170   56.2940   12.4440 C   0  0  0  0  0  0  0  0  0  0  0  0
   -9.1910   56.1250   13.6270 O   0  0  0  0  0  0  0  0  0  0  0  0
   -7.6270   55.5190   10.9470 H   0  0  0  0  0  0  0  0  0  0  0  0
   -9.5360   57.2990   11.6430 C   0  0  0  0  0  0  0  0  0  0  0  0
   -9.2630   57.5750   10.3270 C   0  0  0  0  0  3  0  0  0  0  0  0
   -9.9540   58.5220    9.5980 C   0  0  0  0  0  3  0  0  0  0  0  0
  -10.9670   59.2340   10.2010 C   0  0  0  0  0  3  0  0  0  0  0  0
  -11.2760   58.9900   11.5230 C   0  0  0  0  0  0  0  0  0  0  0  0
  -10.5610   58.0390   12.2050 C   0  0  0  0  0  3  0  0  0  0  0  0
  -12.3530   59.7130   12.2500 C   0  0  0  0  0  2  0  0  0  0  0  0
  -13.4300   58.8530   12.6550 N   0  0  0  0  0  0  0  0  0  0  0  0
  -14.4520   59.5860   13.3920 C   0  0  0  0  0  1  0  0  0  0  0  0
  -14.0670   58.1620   11.5740 C   0  0  0  0  0  1  0  0  0  0  0  0
   -3.2010   53.7760   12.9030 C   0  0  0  0  0  3  0  0  0  0  0  0
   -2.6240   53.6980   11.6810 N   0  0  0  0  0  0  0  0  0  0  0  0
   -1.3010   53.6220   11.8140 N   0  0  0  0  0  0  0  0  0  0  0  0
   -3.1260   53.6960   10.7940 H   0  0  0  0  0  0  0  0  0  0  0  0
   -1.0410   53.6540   13.1060 N   0  0  0  0  0  0  0  0  0  0  0  0
   -0.6180   53.5540   11.0600 H   0  0  0  0  0  0  0  0  0  0  0  0
   -2.1800   53.7460   13.7770 N   0  0  0  0  0  0  0  0  0  0  0  0
   -0.1110   53.6130   13.5240 H   0  0  0  0  0  0  0  0  0  0  0  0
   -2.2670   53.7890   14.7930 H   0  0  0  0  0  0  0  0  0  0  0  0
  1  6  1  0  0  0  0
  2  1  2  0  0  0  0
  2  3  1  0  0  0  0
  3  4  2  0  0  0  0
  4  5  1  0  0  0  0
  6  5  2  0  0  0  0
  7  8  1  0  0  0  0
  7  1  1  0  0  0  0
  8  9  2  0  0  0  0
 10  7  1  0  0  0  0
 11 16  1  0  0  0  0
 11  8  1  0  0  0  0
 12 11  2  0  0  0  0
 13 14  2  0  0  0  0
 13 12  1  0  0  0  0
 14 15  1  0  0  0  0
 15 16  2  0  0  0  0
 15 17  1  0  0  0  0
 17 18  1  0  0  0  0
 18 19  1  0  0  0  0
 20 18  1  0  0  0  0
 21  3  1  0  0  0  0
 21 27  1  0  0  0  0
 22 23  1  0  0  0  0
 22 21  1  0  0  0  0
 23 25  1  0  0  0  0
 24 22  1  0  0  0  0
 25 28  1  0  0  0  0
 25 27  1  0  0  0  0
 26 23  1  0  0  0  0
 27 29  1  0  0  0  0
M  END
>  <minimizedAffinity>
-7.2573266

>  <minimizedRMSD>
0.415433139

$$$$
