
 OpenBabel04082420143D

 25 27  0  0  1  0  0  0  0  0999 V2000
   -6.6910   54.2860   12.3350 C   0  0  0  0  0  0  0  0  0  0  0  0
   -7.1510   53.6870   13.4900 C   0  0  0  0  0  3  0  0  0  0  0  0
   -6.2280   53.0420   14.3030 C   0  0  0  0  0  3  0  0  0  0  0  0
   -4.8830   53.0130   13.9410 C   0  0  0  0  0  3  0  0  0  0  0  0
   -4.4290   53.6110   12.7910 C   0  0  0  0  0  0  0  0  0  0  0  0
   -5.3590   54.2490   11.9930 C   0  0  0  0  0  3  0  0  0  0  0  0
   -7.6800   54.9450   11.5200 N   0  0  0  0  0  0  0  0  0  0  0  0
   -8.4980   55.9450   12.0970 C   0  0  0  0  0  0  0  0  0  0  0  0
   -8.6140   55.9520   13.3420 O   0  0  0  0  0  0  0  0  0  0  0  0
   -7.7900   54.6920   10.5370 H   0  0  0  0  0  0  0  0  0  0  0  0
   -9.1980   56.9500   11.2870 C   0  0  0  0  0  0  0  0  0  0  0  0
   -9.0700   56.9380    9.9040 C   0  0  0  0  0  3  0  0  0  0  0  0
   -9.7240   57.8760    9.1590 C   0  0  0  0  0  3  0  0  0  0  0  0
  -10.5150   58.8460    9.7270 C   0  0  0  0  0  3  0  0  0  0  0  0
  -10.6460   58.8650   11.0920 C   0  0  0  0  0  0  0  0  0  0  0  0
   -9.9890   57.9220   11.8390 C   0  0  0  0  0  3  0  0  0  0  0  0
  -11.7290   60.1790   11.9860 Br  0  0  0  0  0  0  0  0  0  0  0  0
   -2.9990   53.5670   12.4300 C   0  0  1  0  0  3  0  0  0  0  0  0
   -1.9520   53.6110   13.2860 N   0  0  0  0  0  0  0  0  0  0  0  0
   -0.8560   53.5460   12.5480 N   0  0  0  0  0  2  0  0  0  0  0  0
   -1.9990   53.6810   14.3020 H   0  0  0  0  0  0  0  0  0  0  0  0
   -1.1720   53.4620   11.2690 N   0  0  0  0  0  0  0  0  0  0  0  0
   -2.4710   53.4750   11.1970 N   0  0  0  0  0  0  0  0  0  0  0  0
   -0.5210   53.4000   10.4860 H   0  0  0  0  0  0  0  0  0  0  0  0
   -3.0090   53.4240   10.3320 H   0  0  0  0  0  0  0  0  0  0  0  0
  1  2  1  0  0  0  0
  2  3  2  0  0  0  0
  4  3  1  0  0  0  0
  5  4  2  0  0  0  0
  6  1  2  0  0  0  0
  6  5  1  0  0  0  0
  7  8  1  0  0  0  0
  7  1  1  0  0  0  0
  8  9  2  0  0  0  0
 10  7  1  0  0  0  0
 11 16  1  0  0  0  0
 11  8  1  0  0  0  0
 12 11  2  0  0  0  0
 13 14  2  0  0  0  0
 13 12  1  0  0  0  0
 14 15  1  0  0  0  0
 15 16  2  0  0  0  0
 15 17  1  0  0  0  0
 18  5  1  1  0  0  0
 18 19  1  0  0  0  0
 19 21  1  0  0  0  0
 20 19  1  0  0  0  0
 22 20  1  0  0  0  0
 23 22  1  0  0  0  0
 23 18  1  0  0  0  0
 24 22  1  0  0  0  0
 25 23  1  0  0  0  0
M  END
>  <minimizedAffinity>
-7.09738541

>  <minimizedRMSD>
0.287173927

$$$$
