
 OpenBabel04082420023D

 29 32  0  0  1  0  0  0  0  0999 V2000
   22.3030   13.0660   22.1270 O   0  0  0  0  0  0  0  0  0  0  0  0
   22.4550   11.8180   22.2220 C   0  0  0  0  0  0  0  0  0  0  0  0
   22.1190   10.6790   21.3850 C   0  0  1  0  0  0  0  0  0  0  0  0
   22.0250    9.5820   22.3180 N   0  0  0  0  0  0  0  0  0  0  0  0
   22.8270    9.8810   23.4390 C   0  0  0  0  0  0  0  0  0  0  0  0
   23.0960   11.2740   23.3860 N   0  0  0  0  0  0  0  0  0  0  0  0
   23.2450    9.0400   24.3620 N   0  0  0  0  0  2  0  0  0  0  0  0
   23.8970   12.0230   24.3590 C   0  0  0  0  0  1  0  0  0  0  0  0
   23.0030    9.2760   25.3460 H   0  0  0  0  0  0  0  0  0  0  0  0
   20.8340   10.7320   20.6690 C   0  0  0  0  0  0  0  0  0  0  0  0
   20.4570   11.7500   19.8480 C   0  0  0  0  0  3  0  0  0  0  0  0
   19.2080   11.6990   19.2110 C   0  0  0  0  0  3  0  0  0  0  0  0
   18.3590   10.6300   19.4080 C   0  0  0  0  0  3  0  0  0  0  0  0
   18.7350    9.5960   20.2380 C   0  0  0  0  0  3  0  0  0  0  0  0
   19.9610    9.6510   20.8600 C   0  0  0  0  0  3  0  0  0  0  0  0
   23.2420   10.3660   20.4180 C   0  0  0  0  0  0  0  0  0  0  0  0
   22.9570   10.0130   19.1200 C   0  0  0  0  0  3  0  0  0  0  0  0
   23.9870    9.7260   18.2130 C   0  0  0  0  0  3  0  0  0  0  0  0
   25.2820    9.8120   18.6720 C   0  0  0  0  0  3  0  0  0  0  0  0
   25.6100   10.1620   19.9650 C   0  0  0  0  0  0  0  0  0  0  0  0
   24.5530   10.4370   20.8310 C   0  0  0  0  0  3  0  0  0  0  0  0
   26.9990   10.2480   20.4120 C   0  0  0  0  0  0  0  0  0  0  0  0
   27.4530    9.5290   21.4940 C   0  0  0  0  0  3  0  0  0  0  0  0
   28.7800    9.5970   21.9340 C   0  0  0  0  0  0  0  0  0  0  0  0
   29.6740   10.4050   21.2740 C   0  0  0  0  0  3  0  0  0  0  0  0
   29.2290   11.1230   20.1990 C   0  0  0  0  0  3  0  0  0  0  0  0
   27.9100   11.0590   19.7580 C   0  0  0  0  0  3  0  0  0  0  0  0
   29.1690    8.8580   23.0150 O   0  0  0  0  0  0  0  0  0  0  0  0
   30.4680    8.7500   23.5230 C   0  0  0  0  0  1  0  0  0  0  0  0
  1  2  2  0  0  0  0
  2  6  1  0  0  0  0
  3 16  1  6  0  0  0
  3  2  1  0  0  0  0
  3  4  1  0  0  0  0
  4  5  2  0  0  0  0
  5  7  1  0  0  0  0
  6  5  1  0  0  0  0
  6  8  1  0  0  0  0
  7  9  1  0  0  0  0
 10 15  1  0  0  0  0
 10  3  1  0  0  0  0
 11 10  2  0  0  0  0
 12 13  2  0  0  0  0
 12 11  1  0  0  0  0
 13 14  1  0  0  0  0
 14 15  2  0  0  0  0
 16 21  1  0  0  0  0
 17 16  2  0  0  0  0
 18 19  2  0  0  0  0
 18 17  1  0  0  0  0
 19 20  1  0  0  0  0
 20 22  1  0  0  0  0
 20 21  2  0  0  0  0
 22 23  1  0  0  0  0
 23 24  2  0  0  0  0
 24 28  1  0  0  0  0
 25 24  1  0  0  0  0
 26 25  2  0  0  0  0
 27 26  1  0  0  0  0
 27 22  2  0  0  0  0
 28 29  1  0  0  0  0
M  END
>  <minimizedAffinity>
-9.01777744

>  <minimizedRMSD>
0.582943499

$$$$
