
 OpenBabel04082420123D

 24 24  0  0  1  0  0  0  0  0999 V2000
    0.3140   35.1080  136.1850 C   0  0  0  0  0  3  0  0  0  0  0  0
    1.0390   36.2420  136.4670 C   0  0  0  0  0  0  0  0  0  0  0  0
    2.2520   36.1410  137.1080 C   0  0  0  0  0  0  0  0  0  0  0  0
    0.7670   33.8220  136.5320 C   0  0  0  0  0  0  0  0  0  0  0  0
    0.4320   37.8250  136.0150 Cl  0  0  0  0  0  0  0  0  0  0  0  0
    2.6840   34.8810  137.4390 C   0  0  0  0  0  3  0  0  0  0  0  0
    1.9480   33.7190  137.1520 C   0  0  0  0  0  0  0  0  0  0  0  0
   -0.1410   32.7370  136.2790 C   0  0  0  0  0  2  0  0  0  0  0  0
    0.2450   31.7900  135.1550 C   0  0  1  0  0  3  0  0  0  0  0  0
   -0.5260   30.5750  135.0150 C   0  0  0  0  0  0  0  0  0  0  0  0
   -0.0960   29.3740  135.5610 O   0  0  0  0  0  1  0  0  0  0  0  0
   -1.6220   30.5310  134.3900 O   0  0  0  0  0  0  0  0  0  0  0  0
    0.0350   32.5380  133.8580 N   0  0  0  0  0  4  0  0  0  0  0  0
   -0.9070   32.9140  133.7600 H   0  0  0  0  0  0  0  0  0  0  0  0
    0.5340   33.4260  133.8220 H   0  0  0  0  0  0  0  0  0  0  0  0
    0.2940   31.9020  133.1040 H   0  0  0  0  0  0  0  0  0  0  0  0
    2.5990   32.4700  137.4760 C   0  0  0  0  0  2  0  0  0  0  0  0
    3.6270   32.2290  136.3460 C   0  0  0  0  0  2  0  0  0  0  0  0
    4.9080   32.9180  136.6320 C   0  0  0  0  0  0  0  0  0  0  0  0
    5.3760   33.8100  135.6930 O   0  0  0  0  0  0  0  0  0  0  0  0
    5.5740   32.7260  137.6750 O   0  0  0  0  0  1  0  0  0  0  0  0
    3.0350   37.2880  137.4250 N   0  0  0  0  0  0  0  0  0  0  0  0
    4.3670   37.4030  137.1450 O   0  0  0  0  0  0  0  0  0  0  0  0
    2.4160   38.2300  137.9990 O   0  0  0  0  0  0  0  0  0  0  0  0
  1  2  2  0  0  0  0
  1  4  1  0  0  0  0
  2  3  1  0  0  0  0
  3 22  1  0  0  0  0
  3  6  2  0  0  0  0
  4  7  2  0  0  0  0
  5  2  1  0  0  0  0
  7  6  1  0  0  0  0
  7 17  1  0  0  0  0
  8  4  1  0  0  0  0
  9  8  1  1  0  0  0
 10  9  1  0  0  0  0
 10 11  1  0  0  0  0
 12 10  2  0  0  0  0
 13  9  1  0  0  0  0
 14 13  1  0  0  0  0
 15 13  1  0  0  0  0
 16 13  1  0  0  0  0
 18 19  1  0  0  0  0
 18 17  1  0  0  0  0
 19 21  1  0  0  0  0
 20 19  2  0  0  0  0
 22 24  2  0  0  0  0
 23 22  2  0  0  0  0
M  END
>  <minimizedAffinity>
-7.80953503

>  <minimizedRMSD>
0.277111202

$$$$
