
 OpenBabel04082420083D

 24 27  0  0  1  0  0  0  0  0999 V2000
   -4.1670   -2.6360  -20.5740 N   0  0  0  0  0  0  0  0  0  0  0  0
   -4.4940   -3.5150  -20.1740 H   0  0  0  0  0  0  0  0  0  0  0  0
   -4.3760   -1.5170  -19.8770 C   0  0  1  0  0  3  0  0  0  0  0  0
   -3.9480   -0.3540  -20.3950 N   0  0  0  0  0  0  0  0  0  0  0  0
   -4.1070    0.5030  -19.8660 H   0  0  0  0  0  0  0  0  0  0  0  0
   -3.3210   -0.2720  -21.5780 C   0  0  0  0  0  0  0  0  0  0  0  0
   -3.1250   -1.4720  -22.2710 C   0  0  0  0  0  0  0  0  0  0  0  0
   -3.5410   -2.6770  -21.7890 C   0  0  0  0  0  0  0  0  0  0  0  0
   -1.7850    2.2660  -23.7770 N   0  0  0  0  0  1  0  0  0  0  0  0
   -2.0310   -0.1410  -23.9590 C   0  0  0  0  0  3  0  0  0  0  0  0
   -2.4650   -1.3460  -23.4700 C   0  0  0  0  0  2  0  0  0  0  0  0
   -2.8910    0.9460  -22.0570 C   0  0  0  0  0  3  0  0  0  0  0  0
   -2.2370    1.0290  -23.2600 C   0  0  0  0  0  0  0  0  0  0  0  0
   -5.0510   -1.5210  -18.5800 C   0  0  0  0  0  0  0  0  0  0  0  0
   -6.1950   -0.7800  -18.3890 C   0  0  0  0  0  3  0  0  0  0  0  0
   -6.8720   -0.7450  -17.1910 C   0  0  0  0  0  3  0  0  0  0  0  0
   -6.3800   -1.4900  -16.1210 C   0  0  0  0  0  3  0  0  0  0  0  0
   -5.2460   -2.2330  -16.2850 C   0  0  0  0  0  3  0  0  0  0  0  0
   -4.5800   -2.2510  -17.5080 C   0  0  0  0  0  3  0  0  0  0  0  0
   -3.3820   -3.8980  -22.3970 N   0  0  0  0  0  0  0  0  0  0  0  0
   -3.4770   -3.8410  -23.4110 H   0  0  0  0  0  0  0  0  0  0  0  0
   -3.1180   -5.2240  -21.9510 C   0  0  0  0  0  3  0  0  0  0  0  0
   -4.2550   -6.2570  -22.0530 C   0  0  0  0  0  2  0  0  0  0  0  0
   -3.6810   -5.8560  -20.7580 C   0  0  0  0  0  2  0  0  0  0  0  0
  1  2  1  0  0  0  0
  1  3  1  0  0  0  0
  3 14  1  6  0  0  0
  4  3  1  0  0  0  0
  4  5  1  0  0  0  0
  6  4  1  0  0  0  0
  7  8  2  0  0  0  0
  7  6  1  0  0  0  0
  8  1  1  0  0  0  0
  9 13  1  0  0  0  0
 10 11  1  0  0  0  0
 10 13  2  0  0  0  0
 11  7  1  0  0  0  0
 12  6  2  0  0  0  0
 13 12  1  0  0  0  0
 14 15  2  0  0  0  0
 14 19  1  0  0  0  0
 15 16  1  0  0  0  0
 16 17  2  0  0  0  0
 18 17  1  0  0  0  0
 19 18  2  0  0  0  0
 20 22  1  0  0  0  0
 20  8  1  0  0  0  0
 21 20  1  0  0  0  0
 22 24  1  0  0  0  0
 23 22  1  0  0  0  0
 23 24  1  0  0  0  0
M  END
>  <minimizedAffinity>
-6.93507624

>  <minimizedRMSD>
0.957239926

$$$$
