
 OpenBabel04082419593D

 32 36  0  0  1  0  0  0  0  0999 V2000
    7.2990   54.1930    2.1940 N   0  0  0  0  0  0  0  0  0  0  0  0
    7.5810   54.7790    0.9230 C   0  0  0  0  0  2  0  0  0  0  0  0
    6.2380   55.2520    0.4030 C   0  0  0  0  0  2  0  0  0  0  0  0
    5.7800   56.4050    1.2640 C   0  0  1  0  0  3  0  0  0  0  0  0
    6.0440   56.2420    2.6890 C   0  0  0  0  0  2  0  0  0  0  0  0
    7.0320   55.2800    3.1990 C   0  0  0  0  0  2  0  0  0  0  0  0
    6.2240   57.6370    0.6420 N   0  0  0  0  0  0  0  0  0  0  0  0
    7.3220   57.7960   -0.1160 C   0  0  0  0  0  2  0  0  0  0  0  0
    7.4610   59.0720   -0.5370 N   0  0  0  0  0  0  0  0  0  0  0  0
    6.4250   59.7530   -0.0380 C   0  0  0  0  0  0  0  0  0  0  0  0
    8.2100   59.4420   -1.1210 H   0  0  0  0  0  0  0  0  0  0  0  0
    5.6550   58.8510    0.6980 C   0  0  0  0  0  0  0  0  0  0  0  0
    6.0650   61.0870   -0.1530 C   0  0  0  0  0  2  0  0  0  0  0  0
    4.5200   59.3520    1.2990 C   0  0  0  0  0  0  0  0  0  0  0  0
    3.5490   58.7800    2.0640 C   0  0  0  0  0  3  0  0  0  0  0  0
    4.1640   60.6800    1.1830 C   0  0  0  0  0  0  0  0  0  0  0  0
    2.6310   59.7540    2.3970 C   0  0  0  0  0  3  0  0  0  0  0  0
    3.0270   60.9070    1.8470 N   0  0  0  0  0  0  0  0  0  0  0  0
    2.5460   61.8040    1.9210 H   0  0  0  0  0  0  0  0  0  0  0  0
    4.9310   61.5230    0.4660 N   0  0  0  0  0  0  0  0  0  0  0  0
    4.6600   62.5020    0.3870 H   0  0  0  0  0  0  0  0  0  0  0  0
    7.1900   52.9020    2.6410 C   0  0  2  0  0  3  0  0  0  0  0  0
    8.1090   51.7620    2.7970 C   0  0  2  0  0  3  0  0  0  0  0  0
    9.4320   52.1980    2.1460 C   0  0  0  0  0  2  0  0  0  0  0  0
    9.6950   51.0720    1.1920 C   0  0  0  0  0  2  0  0  0  0  0  0
    8.3160   50.4870    0.9360 C   0  0  0  0  0  2  0  0  0  0  0  0
    7.6790   50.5830    2.1930 N   0  0  0  0  0  0  0  0  0  0  0  0
    7.8940   49.3850    3.0170 C   0  0  0  0  0  3  0  0  0  0  0  0
    7.9270   48.1400    2.1700 C   0  0  0  0  0  1  0  0  0  0  0  0
    6.9150   49.2130    4.1200 C   0  0  0  0  0  1  0  0  0  0  0  0
    5.9300   52.6160    3.0250 O   0  0  0  0  0  0  0  0  0  0  0  0
    5.3370   53.3520    2.9240 H   0  0  0  0  0  0  0  0  0  0  0  0
  1 22  1  0  0  0  0
  1  6  1  0  0  0  0
  2  1  1  0  0  0  0
  3  2  1  0  0  0  0
  4  3  1  6  0  0  0
  4  5  1  0  0  0  0
  5  6  1  0  0  0  0
  7 12  1  0  0  0  0
  7  4  1  0  0  0  0
  8  7  1  0  0  0  0
  9  8  1  0  0  0  0
  9 10  1  0  0  0  0
 10 12  2  0  0  0  0
 11  9  1  0  0  0  0
 12 14  1  0  0  0  0
 13 10  1  0  0  0  0
 13 20  1  0  0  0  0
 14 15  1  0  0  0  0
 15 17  2  0  0  0  0
 16 14  2  0  0  0  0
 16 18  1  0  0  0  0
 18 19  1  0  0  0  0
 18 17  1  0  0  0  0
 20 16  1  0  0  0  0
 21 20  1  0  0  0  0
 22 31  1  6  0  0  0
 23 22  1  6  0  0  0
 24 23  1  0  0  0  0
 25 24  1  0  0  0  0
 26 25  1  0  0  0  0
 26 27  1  0  0  0  0
 27 23  1  0  0  0  0
 27 28  1  0  0  0  0
 28 30  1  0  0  0  0
 29 28  1  0  0  0  0
 32 31  1  0  0  0  0
M  END
>  <minimizedAffinity>
-8.9804678

>  <minimizedRMSD>
0.940175474

$$$$
