
 OpenBabel04082420043D

 28 30  0  0  1  0  0  0  0  0999 V2000
  -21.5280  -15.4230   -9.4290 C   0  0  0  0  0  2  0  0  0  0  0  0
  -21.4830  -16.3320   -8.2150 C   0  0  0  0  0  2  0  0  0  0  0  0
  -21.7210  -17.7140   -8.5810 N   0  0  0  0  0  4  0  0  0  0  0  0
  -22.4050  -17.7790   -9.3350 H   0  0  0  0  0  0  0  0  0  0  0  0
  -20.9090  -18.1090   -9.0580 H   0  0  0  0  0  0  0  0  0  0  0  0
  -22.1060  -18.5290   -7.4750 C   0  0  1  0  0  3  0  0  0  0  0  0
  -22.0200  -17.8200   -6.1480 C   0  0  1  0  0  3  0  0  0  0  0  0
  -23.1030  -16.7810   -5.9780 C   0  0  0  0  0  2  0  0  0  0  0  0
  -22.1090  -18.8930   -5.0750 C   0  0  0  0  0  2  0  0  0  0  0  0
  -24.4480  -17.4570   -6.0540 C   0  0  2  0  0  3  0  0  0  0  0  0
  -24.5120  -18.4750   -4.9480 C   0  0  0  0  0  2  0  0  0  0  0  0
  -24.5720  -18.0890   -7.4170 C   0  0  0  0  0  2  0  0  0  0  0  0
  -23.4700  -19.5490   -5.1880 C   0  0  1  0  0  3  0  0  0  0  0  0
  -23.6670  -20.1730   -6.5460 C   0  0  0  0  0  2  0  0  0  0  0  0
  -23.4920  -19.1150   -7.6160 C   0  0  2  0  0  3  0  0  0  0  0  0
  -22.7980  -14.7320   -9.4450 N   0  0  0  0  0  4  0  0  0  0  0  0
  -23.5390  -15.2950   -9.8660 H   0  0  0  0  0  0  0  0  0  0  0  0
  -22.8080  -13.9590  -10.1100 H   0  0  0  0  0  0  0  0  0  0  0  0
  -23.1370  -14.3000   -8.0880 C   0  0  0  0  0  2  0  0  0  0  0  0
  -24.5160  -13.7390   -8.0700 C   0  0  0  0  0  3  0  0  0  0  0  0
  -25.1190  -13.4000   -6.9510 C   0  0  0  0  0  0  0  0  0  0  0  0
  -24.6300  -13.8170   -5.6050 C   0  0  0  0  0  1  0  0  0  0  0  0
  -26.3440  -12.5630   -6.9910 C   0  0  0  0  0  2  0  0  0  0  0  0
  -26.1340  -11.2550   -6.2290 C   0  0  0  0  0  2  0  0  0  0  0  0
  -27.4090  -10.5070   -6.0990 C   0  0  0  0  0  3  0  0  0  0  0  0
  -27.4550   -9.1810   -6.0030 C   0  0  0  0  0  0  0  0  0  0  0  0
  -28.7840   -8.5180   -5.9160 C   0  0  0  0  0  1  0  0  0  0  0  0
  -26.2020   -8.4120   -5.9840 C   0  0  0  0  0  1  0  0  0  0  0  0
  1  2  1  0  0  0  0
  3  2  1  0  0  0  0
  4  3  1  0  0  0  0
  5  3  1  0  0  0  0
  6  3  1  6  0  0  0
  6  7  1  0  0  0  0
  7  8  1  1  0  0  0
  7  9  1  0  0  0  0
 10 12  1  6  0  0  0
 10  8  1  0  0  0  0
 10 11  1  0  0  0  0
 13 14  1  6  0  0  0
 13  9  1  0  0  0  0
 13 11  1  0  0  0  0
 15  6  1  0  0  0  0
 15 12  1  1  0  0  0
 15 14  1  0  0  0  0
 16  1  1  0  0  0  0
 16 19  1  0  0  0  0
 17 16  1  0  0  0  0
 18 16  1  0  0  0  0
 19 20  1  0  0  0  0
 20 21  2  0  0  0  0
 21 22  1  0  0  0  0
 23 21  1  0  0  0  0
 23 24  1  0  0  0  0
 24 25  1  0  0  0  0
 25 26  2  0  0  0  0
 26 28  1  0  0  0  0
 26 27  1  0  0  0  0
M  END
>  <minimizedAffinity>
-7.12773466

>  <minimizedRMSD>
2.49799848

$$$$
