
 OpenBabel04082420013D

 29 30  0  0  1  0  0  0  0  0999 V2000
   32.3700   23.2470   27.7200 C   0  0  1  0  0  3  0  0  0  0  0  0
   32.6610   23.6230   26.3200 C   0  0  1  0  0  3  0  0  0  0  0  0
   33.6100   22.6900   25.6130 C   0  0  2  0  0  3  0  0  0  0  0  0
   33.4380   21.2580   25.9270 C   0  0  1  0  0  3  0  0  0  0  0  0
   32.3720   21.0460   26.9370 C   0  0  2  0  0  3  0  0  0  0  0  0
   32.3170   21.9050   27.9760 O   0  0  0  0  0  0  0  0  0  0  0  0
   33.2150   23.8540   28.7210 N   0  0  0  0  0  0  0  0  0  0  0  0
   32.6520   24.7650   29.5760 C   0  0  0  0  0  0  0  0  0  0  0  0
   31.4510   25.0470   29.4870 O   0  0  0  0  0  0  0  0  0  0  0  0
   33.3650   25.3920   30.5430 N   0  0  0  0  0  0  0  0  0  0  0  0
   34.6700   25.1210   30.6800 C   0  0  0  0  0  0  0  0  0  0  0  0
   32.9120   26.0640   31.1610 H   0  0  0  0  0  0  0  0  0  0  0  0
   35.3900   25.6770   31.5650 O   0  0  0  0  0  0  0  0  0  0  0  0
   35.2850   24.2160   29.8490 C   0  0  0  0  0  0  0  0  0  0  0  0
   34.5250   23.6090   28.8890 C   0  0  0  0  0  3  0  0  0  0  0  0
   36.7030   23.8690   29.9450 C   0  0  0  0  0  0  0  0  0  0  0  0
   37.8430   23.5990   30.0100 C   0  0  0  0  0  0  0  0  0  0  0  0
   39.2970   23.2470   30.0680 C   0  0  0  0  0  2  0  0  0  0  0  0
   39.7550   23.2780   31.5210 C   0  0  0  0  0  2  0  0  0  0  0  0
   40.6220   24.4890   31.7880 C   0  0  0  0  0  1  0  0  0  0  0  0
   31.4820   23.5920   25.5240 O   0  0  0  0  0  0  0  0  0  0  0  0
   31.6690   23.8340   24.6240 H   0  0  0  0  0  0  0  0  0  0  0  0
   34.9410   23.0360   25.9320 O   0  0  0  0  0  0  0  0  0  0  0  0
   35.5390   22.4480   25.4870 H   0  0  0  0  0  0  0  0  0  0  0  0
   32.5550   19.6450   27.5040 C   0  0  0  0  0  2  0  0  0  0  0  0
   33.5080   18.9350   26.7760 O   0  0  0  0  0  0  0  0  0  0  0  0
   33.6220   18.0610   27.1290 H   0  0  0  0  0  0  0  0  0  0  0  0
   33.0360   20.5830   24.7530 O   0  0  0  0  0  0  0  0  0  0  0  0
   32.9260   19.6620   24.9560 H   0  0  0  0  0  0  0  0  0  0  0  0
  1  6  1  0  0  0  0
  1  7  1  1  0  0  0
  2 21  1  6  0  0  0
  2  1  1  0  0  0  0
  3  4  1  0  0  0  0
  3 23  1  1  0  0  0
  3  2  1  0  0  0  0
  4 28  1  6  0  0  0
  4  5  1  0  0  0  0
  5 25  1  1  0  0  0
  5  6  1  0  0  0  0
  7 15  1  0  0  0  0
  7  8  1  0  0  0  0
  8 10  1  0  0  0  0
  9  8  2  0  0  0  0
 10 11  1  0  0  0  0
 10 12  1  0  0  0  0
 11 13  2  0  0  0  0
 14 16  1  0  0  0  0
 14 11  1  0  0  0  0
 15 14  2  0  0  0  0
 16 17  3  0  0  0  0
 17 18  1  0  0  0  0
 18 19  1  0  0  0  0
 19 20  1  0  0  0  0
 22 21  1  0  0  0  0
 24 23  1  0  0  0  0
 26 27  1  0  0  0  0
 26 25  1  0  0  0  0
 28 29  1  0  0  0  0
M  END
>  <minimizedAffinity>
-8.0020504

>  <minimizedRMSD>
0.570115447

$$$$
