
 OpenBabel04082420163D

 28 29  0  0  1  0  0  0  0  0999 V2000
    9.7100   33.4030   73.1910 C   0  0  0  0  0  3  0  0  0  0  0  0
    8.4750   33.8460   73.4840 C   0  0  0  0  0  0  0  0  0  0  0  0
    7.4350   33.3690   72.7630 C   0  0  0  0  0  0  0  0  0  0  0  0
    8.2590   32.2110   71.5860 S   0  0  0  0  0  0  0  0  0  0  0  0
    9.8720   32.5090   72.1990 C   0  0  0  0  0  0  0  0  0  0  0  0
    8.2290   34.8340   74.5670 N   0  0  0  0  0  0  0  0  0  0  0  0
    8.5480   36.1800   74.3030 C   0  0  1  0  0  3  0  0  0  0  0  0
    9.1800   36.7880   73.1230 C   0  0  1  0  0  3  0  0  0  0  0  0
    8.0270   37.3420   72.2750 C   0  0  0  0  0  2  0  0  0  0  0  0
    7.8340   38.8190   72.4300 C   0  0  0  0  0  2  0  0  0  0  0  0
    9.0520   39.5910   71.9450 C   0  0  1  0  0  3  0  0  0  0  0  0
   10.3220   38.9340   72.4270 C   0  0  0  0  0  2  0  0  0  0  0  0
    9.0370   39.7560   70.4420 C   0  0  0  0  0  1  0  0  0  0  0  0
   10.0700   37.9450   73.5480 C   0  0  0  0  0  2  0  0  0  0  0  0
    8.2100   36.9850   75.2720 O   0  0  0  0  0  0  0  0  0  0  0  0
    8.4240   37.8930   75.0930 H   0  0  0  0  0  0  0  0  0  0  0  0
    7.7530   34.2830   75.7230 N   0  0  0  0  0  0  0  0  0  0  0  0
    8.0650   32.8450   75.7620 C   0  0  0  0  0  1  0  0  0  0  0  0
    8.0360   34.8670   76.9760 C   0  0  0  0  0  1  0  0  0  0  0  0
    5.9970   33.5900   72.7710 C   0  0  0  0  0  0  0  0  0  0  0  0
    5.2770   32.8410   72.0600 O   0  0  0  0  0  0  0  0  0  0  0  0
    5.3700   34.5570   73.4980 O   0  0  0  0  0  1  0  0  0  0  0  0
   11.1010   31.8900   71.7150 C   0  0  0  0  0  0  0  0  0  0  0  0
   12.1210   31.3680   71.2900 C   0  0  0  0  0  0  0  0  0  0  0  0
   13.3420   30.7500   70.7570 C   0  0  0  0  0  0  0  0  0  0  0  0
   13.5670   31.1470   69.3130 C   0  0  0  0  0  1  0  0  0  0  0  0
   14.5090   31.1650   71.6130 C   0  0  0  0  0  1  0  0  0  0  0  0
   13.2450   29.2360   70.7890 C   0  0  0  0  0  1  0  0  0  0  0  0
  1  2  1  0  0  0  0
  2  6  1  0  0  0  0
  3 20  1  0  0  0  0
  3  2  2  0  0  0  0
  4  5  1  0  0  0  0
  4  3  1  0  0  0  0
  5  1  2  0  0  0  0
  6 17  1  0  0  0  0
  7  6  1  0  0  0  0
  7 15  1  6  0  0  0
  8 14  1  0  0  0  0
  8  7  1  1  0  0  0
  9 10  1  0  0  0  0
  9  8  1  0  0  0  0
 11 13  1  6  0  0  0
 11 12  1  0  0  0  0
 11 10  1  0  0  0  0
 12 14  1  0  0  0  0
 16 15  1  0  0  0  0
 17 18  1  0  0  0  0
 17 19  1  0  0  0  0
 20 22  1  0  0  0  0
 21 20  2  0  0  0  0
 23  5  1  0  0  0  0
 24 23  3  0  0  0  0
 25 28  1  0  0  0  0
 25 24  1  0  0  0  0
 25 27  1  0  0  0  0
 26 25  1  0  0  0  0
M  END
>  <minimizedAffinity>
-6.3115921

>  <minimizedRMSD>
0.944414139

$$$$
