
 OpenBabel04082420023D

 35 38  0  0  1  0  0  0  0  0999 V2000
   -8.0700  -23.2310   24.3230 C   0  0  1  0  0  3  0  0  0  0  0  0
  -10.5500  -20.4150   21.9200 C   0  0  0  0  0  2  0  0  0  0  0  0
   -7.0750  -22.4770   23.7380 N   0  0  0  0  0  0  0  0  0  0  0  0
   -6.1080  -22.7090   23.9620 H   0  0  0  0  0  0  0  0  0  0  0  0
   -7.2930  -21.4680   22.9010 C   0  0  2  0  0  3  0  0  0  0  0  0
   -8.5940  -21.1470   22.5920 C   0  0  0  0  0  0  0  0  0  0  0  0
   -9.2200  -20.2400   21.8240 N   0  0  0  0  0  0  0  0  0  0  0  0
   -8.7580  -19.5290   21.2550 H   0  0  0  0  0  0  0  0  0  0  0  0
  -10.8180  -21.4400   22.7550 N   0  0  0  0  0  0  0  0  0  0  0  0
  -11.7360  -21.7980   23.0170 H   0  0  0  0  0  0  0  0  0  0  0  0
   -9.6170  -21.8950   23.1710 C   0  0  0  0  0  0  0  0  0  0  0  0
   -9.3130  -22.8870   23.9970 N   0  0  0  0  0  0  0  0  0  0  0  0
  -10.0800  -23.4190   24.4080 H   0  0  0  0  0  0  0  0  0  0  0  0
   -7.7180  -24.2820   25.1870 N   0  0  0  0  0  0  0  0  0  0  0  0
   -8.3770  -24.4980   25.9350 H   0  0  0  0  0  0  0  0  0  0  0  0
   -6.5690  -25.0560   25.1330 C   0  0  0  0  0  0  0  0  0  0  0  0
   -6.0100  -25.5950   26.3120 C   0  0  0  0  0  3  0  0  0  0  0  0
   -4.8920  -26.3630   26.2660 C   0  0  0  0  0  3  0  0  0  0  0  0
   -4.2310  -26.6680   25.0850 C   0  0  0  0  0  0  0  0  0  0  0  0
   -4.7570  -26.1560   23.9330 C   0  0  0  0  0  3  0  0  0  0  0  0
   -5.9110  -25.3640   23.9820 C   0  0  0  0  0  3  0  0  0  0  0  0
   -2.8010  -27.6580   25.0780 S   0  0  0  0  0  0  0  0  0  0  0  0
   -2.9630  -28.8950   24.2630 O   0  0  0  0  0  0  0  0  0  0  0  0
   -2.5040  -28.0780   26.5070 O   0  0  0  0  0  0  0  0  0  0  0  0
   -1.4370  -26.7900   24.4580 N   0  0  0  0  0  0  0  0  0  0  0  0
   -1.4820  -25.8220   24.1420 H   0  0  0  0  0  0  0  0  0  0  0  0
   -0.5980  -27.3700   24.4540 H   0  0  0  0  0  0  0  0  0  0  0  0
   -6.2700  -20.7610   22.3540 O   0  0  0  0  0  0  0  0  0  0  0  0
   -4.9190  -21.1400   22.3280 C   0  0  0  0  0  2  0  0  0  0  0  0
   -4.0680  -20.2730   21.4300 C   0  0  0  0  0  3  0  0  0  0  0  0
   -4.8170  -20.1090   20.1250 C   0  0  0  0  0  2  0  0  0  0  0  0
   -4.7580  -21.3560   19.2800 C   0  0  0  0  0  2  0  0  0  0  0  0
   -3.3570  -21.7590   18.9300 C   0  0  0  0  0  2  0  0  0  0  0  0
   -2.4110  -20.8390   19.6690 C   0  0  0  0  0  2  0  0  0  0  0  0
   -2.7230  -20.8920   21.1500 C   0  0  0  0  0  2  0  0  0  0  0  0
  1 14  1  6  0  0  0
  2  9  1  0  0  0  0
  3  4  1  0  0  0  0
  3  1  1  0  0  0  0
  5 28  1  6  0  0  0
  5  3  1  0  0  0  0
  6  5  1  0  0  0  0
  6 11  2  0  0  0  0
  7  2  1  0  0  0  0
  7  6  1  0  0  0  0
  8  7  1  0  0  0  0
  9 10  1  0  0  0  0
  9 11  1  0  0  0  0
 11 12  1  0  0  0  0
 12  1  1  0  0  0  0
 12 13  1  0  0  0  0
 14 15  1  0  0  0  0
 16 14  1  0  0  0  0
 16 17  1  0  0  0  0
 18 17  2  0  0  0  0
 19 18  1  0  0  0  0
 20 21  1  0  0  0  0
 20 19  2  0  0  0  0
 21 16  2  0  0  0  0
 22 19  1  0  0  0  0
 22 24  2  0  0  0  0
 23 22  2  0  0  0  0
 25 22  1  0  0  0  0
 26 25  1  0  0  0  0
 27 25  1  0  0  0  0
 29 28  1  0  0  0  0
 30 29  1  0  0  0  0
 31 30  1  0  0  0  0
 32 31  1  0  0  0  0
 33 32  1  0  0  0  0
 33 34  1  0  0  0  0
 34 35  1  0  0  0  0
 35 30  1  0  0  0  0
M  END
>  <minimizedAffinity>
-9.24353886

>  <minimizedRMSD>
0.434401929

$$$$
