
 OpenBabel04082419553D

 24 26  0  0  1  0  0  0  0  0999 V2000
    2.6450  -21.5530  -10.9050 C   0  0  0  0  0  2  0  0  0  0  0  0
    3.7030  -20.2790  -12.5250 C   0  0  0  0  0  0  0  0  0  0  0  0
    4.0480  -21.4440  -13.2070 C   0  0  0  0  0  0  0  0  0  0  0  0
    3.6700  -22.6680  -12.7020 C   0  0  2  0  0  3  0  0  0  0  0  0
    4.1910  -19.1990  -13.2220 C   0  0  0  0  0  0  0  0  0  0  0  0
    4.8310  -19.7180  -14.3260 C   0  0  0  0  0  3  0  0  0  0  0  0
    4.7290  -21.0690  -14.2910 N   0  0  0  0  0  0  0  0  0  0  0  0
    5.1150  -21.7040  -14.9900 H   0  0  0  0  0  0  0  0  0  0  0  0
    4.0240  -23.8520  -13.4010 N   0  0  0  0  0  1  0  0  0  0  0  0
    2.9750  -22.6770  -11.5580 N   0  0  0  0  0  0  0  0  0  0  0  0
    2.6850  -23.5730  -11.1670 H   0  0  0  0  0  0  0  0  0  0  0  0
    3.0100  -20.3590  -11.3880 N   0  0  0  0  0  0  0  0  0  0  0  0
    2.7560  -19.5080  -10.8860 H   0  0  0  0  0  0  0  0  0  0  0  0
    4.0270  -17.8030  -12.8170 C   0  0  0  0  0  2  0  0  0  0  0  0
    5.0010  -17.2980  -11.9110 N   0  0  0  0  0  0  0  0  0  0  0  0
    6.3100  -17.8460  -12.1440 C   0  0  0  0  0  2  0  0  0  0  0  0
    7.1020  -17.7180  -10.8490 C   0  0  1  0  0  3  0  0  0  0  0  0
    6.0920  -17.0730   -9.9440 C   0  0  2  0  0  3  0  0  0  0  0  0
    4.7850  -17.6540  -10.5200 C   0  0  0  0  0  2  0  0  0  0  0  0
    7.6110  -19.0430  -10.3950 C   0  0  0  0  0  2  0  0  0  0  0  0
    8.4630  -19.0250   -8.8380 S   0  0  0  0  0  0  0  0  0  0  0  0
   10.2410  -19.1230   -8.9120 C   0  0  0  0  0  1  0  0  0  0  0  0
    6.0840  -15.7130  -10.2720 O   0  0  0  0  0  0  0  0  0  0  0  0
    5.4450  -15.3050   -9.7000 H   0  0  0  0  0  0  0  0  0  0  0  0
  2 12  1  0  0  0  0
  3  4  1  0  0  0  0
  3  2  2  0  0  0  0
  4  9  1  6  0  0  0
  4 10  1  0  0  0  0
  5 14  1  0  0  0  0
  5  2  1  0  0  0  0
  6  7  1  0  0  0  0
  6  5  2  0  0  0  0
  7  3  1  0  0  0  0
  8  7  1  0  0  0  0
 10 11  1  0  0  0  0
 10  1  1  0  0  0  0
 12  1  1  0  0  0  0
 12 13  1  0  0  0  0
 14 15  1  0  0  0  0
 15 19  1  0  0  0  0
 16 15  1  0  0  0  0
 16 17  1  0  0  0  0
 17 20  1  1  0  0  0
 17 18  1  0  0  0  0
 18 23  1  6  0  0  0
 19 18  1  0  0  0  0
 20 21  1  0  0  0  0
 22 21  1  0  0  0  0
 23 24  1  0  0  0  0
M  END
>  <minimizedAffinity>
-8.60003567

>  <minimizedRMSD>
0.428028315

$$$$
