
 OpenBabel04082419553D

 20 21  0  0  0  0  0  0  0  0999 V2000
   32.3510  -13.3240    3.5400 C   0  0  0  0  0  0  0  0  0  0  0  0
   33.7100  -13.1430    3.2480 N   0  0  0  0  0  0  0  0  0  0  0  0
   34.3850  -13.8390    3.5650 H   0  0  0  0  0  0  0  0  0  0  0  0
   31.6300  -12.2750    3.3520 O   0  0  0  0  0  0  0  0  0  0  0  0
   31.6890  -14.5210    4.0120 C   0  0  0  0  0  0  0  0  0  0  0  0
   31.4990  -14.7870    5.3370 C   0  0  0  0  0  0  0  0  0  0  0  0
   30.8920  -15.9840    5.6910 C   0  0  0  0  0  3  0  0  0  0  0  0
   31.9340  -13.7030    6.6300 Cl  0  0  0  0  0  0  0  0  0  0  0  0
   30.4750  -16.9070    4.7590 C   0  0  0  0  0  3  0  0  0  0  0  0
   30.6830  -16.6000    3.4440 C   0  0  0  0  0  3  0  0  0  0  0  0
   31.2700  -15.4510    3.0440 C   0  0  0  0  0  0  0  0  0  0  0  0
   31.5300  -15.0780    1.3510 Cl  0  0  0  0  0  0  0  0  0  0  0  0
   34.1820  -11.9850    2.5020 C   0  0  0  0  0  0  0  0  0  0  0  0
   35.1430  -12.2270    1.6520 C   0  0  0  0  0  3  0  0  0  0  0  0
   35.7000  -11.1540    0.8520 C   0  0  0  0  0  3  0  0  0  0  0  0
   35.2460   -9.9520    0.9770 N   0  0  0  0  0  0  0  0  0  0  0  0
   34.2130   -9.6420    1.8800 C   0  0  0  0  0  0  0  0  0  0  0  0
   35.6480   -9.2090    0.4070 H   0  0  0  0  0  0  0  0  0  0  0  0
   33.5970  -10.6670    2.7240 C   0  0  0  0  0  3  0  0  0  0  0  0
   33.7790   -8.4340    1.9860 O   0  0  0  0  0  0  0  0  0  0  0  0
  1  5  1  0  0  0  0
  2  1  1  0  0  0  0
  2  3  1  0  0  0  0
  4  1  2  0  0  0  0
  5  6  1  0  0  0  0
  6  7  2  0  0  0  0
  6  8  1  0  0  0  0
  9  7  1  0  0  0  0
 10  9  2  0  0  0  0
 11 10  1  0  0  0  0
 11  5  2  0  0  0  0
 12 11  1  0  0  0  0
 13 19  2  0  0  0  0
 13  2  1  0  0  0  0
 14 13  1  0  0  0  0
 15 16  1  0  0  0  0
 15 14  2  0  0  0  0
 16 17  1  0  0  0  0
 17 20  2  0  0  0  0
 17 19  1  0  0  0  0
 18 16  1  0  0  0  0
M  END
>  <minimizedAffinity>
-7.02424002

>  <minimizedRMSD>
0.287929356

$$$$
