
 OpenBabel04082420153D

 21 22  0  0  0  0  0  0  0  0999 V2000
  -27.5530  -28.4190    7.5080 N   0  0  0  0  0  0  0  0  0  0  0  0
  -28.1790  -28.0000    8.1950 H   0  0  0  0  0  0  0  0  0  0  0  0
  -27.1010  -29.7260    7.7950 C   0  0  0  0  0  0  0  0  0  0  0  0
  -28.0120  -30.7830    7.7750 C   0  0  0  0  0  0  0  0  0  0  0  0
  -27.5160  -32.0510    8.1530 C   0  0  0  0  0  3  0  0  0  0  0  0
  -26.2130  -32.2300    8.5180 C   0  0  0  0  0  0  0  0  0  0  0  0
  -25.6500  -33.5420    8.9240 C   0  0  0  0  0  1  0  0  0  0  0  0
  -25.3420  -31.1510    8.5240 C   0  0  0  0  0  3  0  0  0  0  0  0
  -25.7860  -29.8980    8.1610 C   0  0  0  0  0  3  0  0  0  0  0  0
  -29.4050  -30.7020    7.4360 C   0  0  0  0  0  0  0  0  0  0  0  0
  -30.0700  -31.5770    6.6460 O   0  0  0  0  0  0  0  0  0  0  0  0
  -30.1000  -29.7380    7.9020 O   0  0  0  0  0  1  0  0  0  0  0  0
  -27.2400  -27.6180    6.3780 C   0  0  0  0  0  0  0  0  0  0  0  0
  -26.6270  -28.1250    5.2520 C   0  0  0  0  0  3  0  0  0  0  0  0
  -26.3720  -27.3980    4.0960 C   0  0  0  0  0  3  0  0  0  0  0  0
  -26.7400  -26.0910    4.0500 C   0  0  0  0  0  3  0  0  0  0  0  0
  -27.3530  -25.5310    5.1400 C   0  0  0  0  0  3  0  0  0  0  0  0
  -27.6060  -26.2720    6.2960 C   0  0  0  0  0  0  0  0  0  0  0  0
  -28.2790  -25.5750    7.3640 C   0  0  0  0  0  0  0  0  0  0  0  0
  -29.4060  -26.1810    7.9760 O   0  0  0  0  0  1  0  0  0  0  0  0
  -27.9730  -24.4680    7.8200 O   0  0  0  0  0  0  0  0  0  0  0  0
  1  3  1  0  0  0  0
  1  2  1  0  0  0  0
  3  9  1  0  0  0  0
  4  3  2  0  0  0  0
  4  5  1  0  0  0  0
  5  6  2  0  0  0  0
  6  8  1  0  0  0  0
  6  7  1  0  0  0  0
  9  8  2  0  0  0  0
 10  4  1  0  0  0  0
 10 12  1  0  0  0  0
 11 10  2  0  0  0  0
 13  1  1  0  0  0  0
 14 13  2  0  0  0  0
 15 14  1  0  0  0  0
 16 15  2  0  0  0  0
 16 17  1  0  0  0  0
 17 18  2  0  0  0  0
 18 13  1  0  0  0  0
 18 19  1  0  0  0  0
 19 21  2  0  0  0  0
 19 20  1  0  0  0  0
M  END
>  <minimizedAffinity>
-7.40376377

>  <minimizedRMSD>
1.35825777

$$$$
