
 OpenBabel04082420043D

 47 50  0  0  1  0  0  0  0  0999 V2000
   -8.6530   25.7480   -3.2640 C   0  0  2  0  0  3  0  0  0  0  0  0
   -8.9850   26.6400   -4.3960 C   0  0  0  0  0  0  0  0  0  0  0  0
  -10.1230   26.6550   -4.9160 O   0  0  0  0  0  0  0  0  0  0  0  0
   -7.9990   27.5110   -4.9210 N   0  0  0  0  0  0  0  0  0  0  0  0
   -7.0460   27.4400   -4.5640 H   0  0  0  0  0  0  0  0  0  0  0  0
   -8.2850   28.4980   -5.9440 C   0  0  1  0  0  3  0  0  0  0  0  0
   -8.1270   29.9120   -5.3960 C   0  0  0  0  0  1  0  0  0  0  0  0
   -7.3330   28.3740   -7.0750 C   0  0  0  0  0  0  0  0  0  0  0  0
   -6.1160   28.2640   -6.8190 O   0  0  0  0  0  0  0  0  0  0  0  0
   -7.7650   28.3770   -8.4220 N   0  0  0  0  0  0  0  0  0  0  0  0
   -8.7630   28.2940   -8.6130 H   0  0  0  0  0  0  0  0  0  0  0  0
   -6.8550   28.4940   -9.5500 C   0  0  1  0  0  3  0  0  0  0  0  0
   -7.6280   28.5590  -10.8280 C   0  0  0  0  0  1  0  0  0  0  0  0
   -6.0430   29.7540   -9.4350 C   0  0  0  0  0  0  0  0  0  0  0  0
   -4.8190   29.7240   -9.6660 O   0  0  0  0  0  0  0  0  0  0  0  0
   -6.6970   30.9480   -9.0660 N   0  0  0  0  0  1  0  0  0  0  0  0
   -8.9310   24.3140   -3.5350 C   0  0  0  0  0  2  0  0  0  0  0  0
   -7.9180   23.6690   -4.4010 C   0  0  1  0  0  3  0  0  0  0  0  0
   -8.1210   22.7130   -5.2530 O   0  0  0  0  0  0  0  0  0  0  0  0
   -7.0020   22.3790   -5.8530 N   0  0  0  0  0  0  0  0  0  0  0  0
   -5.9870   23.1170   -5.4110 C   0  0  0  0  0  0  0  0  0  0  0  0
   -6.9210   21.6490   -6.5620 H   0  0  0  0  0  0  0  0  0  0  0  0
   -6.5730   23.9660   -4.4610 C   0  0  0  0  0  3  0  0  0  0  0  0
   -4.5890   23.1290   -5.7540 C   0  0  0  0  0  0  0  0  0  0  0  0
   -3.6700   23.8560   -5.0400 C   0  0  0  0  0  3  0  0  0  0  0  0
   -2.3320   23.8550   -5.3850 C   0  0  0  0  0  3  0  0  0  0  0  0
   -1.8690   23.1210   -6.4630 C   0  0  0  0  0  0  0  0  0  0  0  0
   -2.8040   22.3950   -7.1720 C   0  0  0  0  0  3  0  0  0  0  0  0
   -4.1520   22.3930   -6.8280 C   0  0  0  0  0  3  0  0  0  0  0  0
   -0.4490   23.1460   -6.7960 C   0  0  0  0  0  0  0  0  0  0  0  0
    0.1760   22.0580   -7.3660 C   0  0  0  0  0  3  0  0  0  0  0  0
    1.5240   22.0740   -7.6840 C   0  0  0  0  0  0  0  0  0  0  0  0
    2.2940   20.6850   -8.4040 Cl  0  0  0  0  0  0  0  0  0  0  0  0
    2.2930   23.1930   -7.4380 C   0  0  0  0  0  3  0  0  0  0  0  0
    1.6760   24.2870   -6.8680 C   0  0  0  0  0  3  0  0  0  0  0  0
    0.3300   24.2650   -6.5520 C   0  0  0  0  0  3  0  0  0  0  0  0
   -9.2700   26.2460   -1.9840 C   0  0  0  0  0  2  0  0  0  0  0  0
   -8.4450   25.6820   -0.5060 P   0  0  2  0  0  0  0  0  0  0  0  0
   -6.9470   26.4400   -0.2890 O   0  0  0  0  0  1  0  0  0  0  0  0
   -8.3150   24.1720   -0.4370 O   0  0  0  0  0  0  0  0  0  0  0  0
   -9.4680   26.1380    0.9060 C   0  0  0  0  0  0  0  0  0  0  0  0
  -10.4030   25.2470    1.4130 C   0  0  0  0  0  3  0  0  0  0  0  0
  -11.1810   25.6010    2.4910 C   0  0  0  0  0  3  0  0  0  0  0  0
  -11.0610   26.8380    3.0980 C   0  0  0  0  0  0  0  0  0  0  0  0
  -12.1710   27.2760    4.5960 Br  0  0  0  0  0  0  0  0  0  0  0  0
  -10.1370   27.7140    2.5940 C   0  0  0  0  0  3  0  0  0  0  0  0
   -9.3550   27.3650    1.5130 C   0  0  0  0  0  3  0  0  0  0  0  0
  1 17  1  6  0  0  0
  1 37  1  0  0  0  0
  2  1  1  0  0  0  0
  3  2  2  0  0  0  0
  4  5  1  0  0  0  0
  4  2  1  0  0  0  0
  6  7  1  1  0  0  0
  6  4  1  0  0  0  0
  8  9  2  0  0  0  0
  8  6  1  0  0  0  0
 10  8  1  0  0  0  0
 11 10  1  0  0  0  0
 12 13  1  6  0  0  0
 12 14  1  0  0  0  0
 12 10  1  0  0  0  0
 14 16  1  0  0  0  0
 15 14  2  0  0  0  0
 18 17  1  6  0  0  0
 19 18  1  0  0  0  0
 20 21  1  0  0  0  0
 20 19  1  0  0  0  0
 21 23  2  0  0  0  0
 22 20  1  0  0  0  0
 23 18  1  0  0  0  0
 24 21  1  0  0  0  0
 24 25  1  0  0  0  0
 26 25  2  0  0  0  0
 27 26  1  0  0  0  0
 28 29  1  0  0  0  0
 28 27  2  0  0  0  0
 29 24  2  0  0  0  0
 30 36  1  0  0  0  0
 30 27  1  0  0  0  0
 31 30  2  0  0  0  0
 32 34  2  0  0  0  0
 32 31  1  0  0  0  0
 33 32  1  0  0  0  0
 34 35  1  0  0  0  0
 35 36  2  0  0  0  0
 37 38  1  0  0  0  0
 38 40  2  6  0  0  0
 38 39  1  0  0  0  0
 38 41  1  0  0  0  0
 41 42  2  0  0  0  0
 41 47  1  0  0  0  0
 42 43  1  0  0  0  0
 43 44  2  0  0  0  0
 44 45  1  0  0  0  0
 46 44  1  0  0  0  0
 47 46  2  0  0  0  0
M  END
>  <minimizedAffinity>
-10.9688129

>  <minimizedRMSD>
0.846391022

$$$$
