
 OpenBabel04082420003D

 29 32  0  0  1  0  0  0  0  0999 V2000
   59.5490   10.4380    5.6180 C   0  0  0  0  0  0  0  0  0  0  0  0
   58.7960    9.2800    5.3460 N   0  0  0  0  0  0  0  0  0  0  0  0
   59.2850    8.4080    5.1450 H   0  0  0  0  0  0  0  0  0  0  0  0
   59.1000   11.1540    6.5850 O   0  0  0  0  0  0  0  0  0  0  0  0
   57.3580    9.2910    5.3450 C   0  0  1  0  0  3  0  0  0  0  0  0
   56.6170    9.7620    6.4190 C   0  0  0  0  0  3  0  0  0  0  0  0
   55.2860    9.6390    6.1030 C   0  0  0  0  0  0  0  0  0  0  0  0
   54.0880   10.0170    6.9280 C   0  0  0  0  0  1  0  0  0  0  0  0
   55.2210    9.1100    4.8780 N   0  0  0  0  0  0  0  0  0  0  0  0
   56.4770    8.9030    4.4290 N   0  0  0  0  0  0  0  0  0  0  0  0
   54.3650    8.8980    4.3670 H   0  0  0  0  0  0  0  0  0  0  0  0
   56.7870    8.3520    3.1680 C   0  0  0  0  0  0  0  0  0  0  0  0
   57.2420    9.1740    2.1710 C   0  0  0  0  0  3  0  0  0  0  0  0
   57.5510    8.6590    0.9200 C   0  0  0  0  0  3  0  0  0  0  0  0
   57.3940    7.3090    0.6980 C   0  0  0  0  0  3  0  0  0  0  0  0
   56.9370    6.4780    1.6920 C   0  0  0  0  0  0  0  0  0  0  0  0
   56.7430    4.7590    1.3920 Cl  0  0  0  0  0  0  0  0  0  0  0  0
   56.6300    7.0100    2.9480 C   0  0  0  0  0  3  0  0  0  0  0  0
   60.7450   10.8840    4.9330 C   0  0  0  0  0  0  0  0  0  0  0  0
   61.6980   11.7830    5.4160 C   0  0  0  0  0  2  0  0  0  0  0  0
   62.6440   11.9470    4.4860 N   0  0  0  0  0  0  0  0  0  0  0  0
   62.3680   11.2030    3.4160 N   0  0  0  0  0  0  0  0  0  0  0  0
   63.4600   12.5520    4.5820 H   0  0  0  0  0  0  0  0  0  0  0  0
   63.0300   11.0520    2.2530 C   0  0  0  0  0  2  0  0  0  0  0  0
   61.2080   10.5440    3.6700 C   0  0  0  0  0  0  0  0  0  0  0  0
   62.4640   10.1920    1.3400 C   0  0  0  0  0  3  0  0  0  0  0  0
   61.2740    9.5080    1.5860 C   0  0  0  0  0  3  0  0  0  0  0  0
   60.6690    9.7080    2.7660 N   0  0  0  0  0  0  0  0  0  0  0  0
   59.7970    9.2250    2.9770 H   0  0  0  0  0  0  0  0  0  0  0  0
  1  4  2  0  0  0  0
  2  1  1  0  0  0  0
  3  2  1  0  0  0  0
  5  2  1  6  0  0  0
  5  6  1  0  0  0  0
  7  6  2  0  0  0  0
  7  8  1  0  0  0  0
  9  7  1  0  0  0  0
 10  9  1  0  0  0  0
 10  5  1  0  0  0  0
 11  9  1  0  0  0  0
 12 10  1  0  0  0  0
 13 12  2  0  0  0  0
 14 13  1  0  0  0  0
 15 14  2  0  0  0  0
 15 16  1  0  0  0  0
 16 18  2  0  0  0  0
 17 16  1  0  0  0  0
 18 12  1  0  0  0  0
 19 20  1  0  0  0  0
 19  1  1  0  0  0  0
 21 23  1  0  0  0  0
 21 20  1  0  0  0  0
 22 25  1  0  0  0  0
 22 21  1  0  0  0  0
 24 22  1  0  0  0  0
 25 19  2  0  0  0  0
 26 27  2  0  0  0  0
 26 24  1  0  0  0  0
 27 28  1  0  0  0  0
 28 29  1  0  0  0  0
 28 25  1  0  0  0  0
M  END
>  <minimizedAffinity>
-8.79159451

>  <minimizedRMSD>
0.614383996

$$$$
