
 OpenBabel04082419543D

 18 19  0  0  1  0  0  0  0  0999 V2000
   -9.9470    8.8630   10.2370 C   0  0  0  0  0  0  0  0  0  0  0  0
   -9.4320    8.9520    8.9600 C   0  0  0  0  0  3  0  0  0  0  0  0
   -8.1690    9.4190    8.7690 C   0  0  0  0  0  3  0  0  0  0  0  0
   -7.4010    9.8040    9.8590 C   0  0  0  0  0  3  0  0  0  0  0  0
   -9.1740    9.2480   11.3020 C   0  0  0  0  0  3  0  0  0  0  0  0
   -7.9020    9.7210   11.1420 C   0  0  0  0  0  0  0  0  0  0  0  0
  -11.3430    8.3420   10.3860 C   0  0  1  0  0  3  0  0  0  0  0  0
  -11.2820    6.8780   10.6120 C   0  0  0  0  0  0  0  0  0  0  0  0
  -10.7540    6.1360    9.7290 O   0  0  0  0  0  0  0  0  0  0  0  0
  -11.7960    6.2730   11.7840 N   0  0  0  0  0  0  0  0  0  0  0  0
  -12.3470    6.9610   12.7240 C   0  0  0  0  0  3  0  0  0  0  0  0
  -11.7280    5.2610   11.8890 H   0  0  0  0  0  0  0  0  0  0  0  0
  -12.4550    8.4060   12.6010 C   0  0  0  0  0  3  0  0  0  0  0  0
  -11.9940    9.0110   11.5340 C   0  0  0  0  0  2  0  0  0  0  0  0
   -7.0170   10.1510   12.2450 C   0  0  0  0  0  0  0  0  0  0  0  0
   -6.6120   11.5940   12.1460 C   0  0  0  0  0  1  0  0  0  0  0  0
   -5.7410    9.3280   12.1450 C   0  0  0  0  0  1  0  0  0  0  0  0
   -7.6080    9.8640   13.6100 C   0  0  0  0  0  1  0  0  0  0  0  0
  1  5  1  0  0  0  0
  2  1  2  0  0  0  0
  3  2  1  0  0  0  0
  3  4  2  0  0  0  0
  4  6  1  0  0  0  0
  6  5  2  0  0  0  0
  6 15  1  0  0  0  0
  7  1  1  1  0  0  0
  7  8  1  0  0  0  0
  7 14  1  0  0  0  0
  8 10  1  0  0  0  0
  9  8  2  0  0  0  0
 10 12  1  0  0  0  0
 10 11  1  0  0  0  0
 13 11  2  0  0  0  0
 14 13  1  0  0  0  0
 15 18  1  0  0  0  0
 16 15  1  0  0  0  0
 17 15  1  0  0  0  0
M  END
>  <minimizedAffinity>
-6.41097927

>  <minimizedRMSD>
1.02183974

$$$$
