
 OpenBabel04082420173D

 28 31  0  0  1  0  0  0  0  0999 V2000
    5.7050   52.5230    1.3660 C   0  0  0  0  0  2  0  0  0  0  0  0
    4.4370   52.0020    0.8970 C   0  0  0  0  0  0  0  0  0  0  0  0
    3.3900   51.5890    0.5010 N   0  0  0  0  0  0  0  0  0  0  0  0
    5.4420   53.6220    2.3800 C   0  0  1  0  0  3  0  0  0  0  0  0
    6.7110   54.2600    2.8590 C   0  0  0  0  0  2  0  0  0  0  0  0
    6.5150   55.7820    2.7000 C   0  0  0  0  0  2  0  0  0  0  0  0
    6.1920   56.0440    1.2770 C   0  0  1  0  0  3  0  0  0  0  0  0
    4.8540   55.5420    0.8610 C   0  0  0  0  0  2  0  0  0  0  0  0
    4.3790   54.5570    1.9040 C   0  0  0  0  0  2  0  0  0  0  0  0
    6.6490   57.2780    0.6970 N   0  0  0  0  0  0  0  0  0  0  0  0
    7.8530   57.4550    0.0490 C   0  0  1  0  0  3  0  0  0  0  0  0
    7.9790   58.7230   -0.3760 N   0  0  0  0  0  0  0  0  0  0  0  0
    6.8840   59.3890   -0.0240 C   0  0  0  0  0  0  0  0  0  0  0  0
    8.7750   59.1070   -0.8830 H   0  0  0  0  0  0  0  0  0  0  0  0
    6.0720   58.4890    0.6380 C   0  0  0  0  0  0  0  0  0  0  0  0
    6.4910   60.6940   -0.1960 C   0  0  0  0  0  2  0  0  0  0  0  0
    4.8580   58.9650    1.1110 C   0  0  0  0  0  0  0  0  0  0  0  0
    4.5090   60.2900    0.9090 C   0  0  0  0  0  0  0  0  0  0  0  0
    3.8490   58.3220    1.7940 C   0  0  0  0  0  3  0  0  0  0  0  0
    5.3240   61.1580    0.2550 N   0  0  0  0  0  0  0  0  0  0  0  0
    3.2960   60.4460    1.4710 N   0  0  0  0  0  0  0  0  0  0  0  0
    5.0550   62.1310    0.1160 H   0  0  0  0  0  0  0  0  0  0  0  0
    2.8810   59.2870    2.0070 C   0  0  0  0  0  3  0  0  0  0  0  0
    2.7680   61.3190    1.4880 H   0  0  0  0  0  0  0  0  0  0  0  0
    8.8990   56.4070   -0.1450 C   0  0  1  0  0  3  0  0  0  0  0  0
    9.9000   56.8850   -1.1590 C   0  0  0  0  0  1  0  0  0  0  0  0
    9.5900   56.0820    0.9930 O   0  0  0  0  0  0  0  0  0  0  0  0
    8.9580   55.7810    1.6350 H   0  0  0  0  0  0  0  0  0  0  0  0
  2  1  1  0  0  0  0
  3  2  3  0  0  0  0
  4  1  1  6  0  0  0
  4  5  1  0  0  0  0
  6  5  1  0  0  0  0
  7 10  1  1  0  0  0
  7  6  1  0  0  0  0
  8  7  1  0  0  0  0
  8  9  1  0  0  0  0
  9  4  1  0  0  0  0
 11 25  1  1  0  0  0
 11 10  1  0  0  0  0
 12 13  1  0  0  0  0
 12 11  1  0  0  0  0
 13 15  2  0  0  0  0
 14 12  1  0  0  0  0
 15 10  1  0  0  0  0
 15 17  1  0  0  0  0
 16 13  1  0  0  0  0
 16 20  1  0  0  0  0
 17 19  1  0  0  0  0
 18 17  2  0  0  0  0
 18 21  1  0  0  0  0
 19 23  2  0  0  0  0
 20 18  1  0  0  0  0
 21 24  1  0  0  0  0
 21 23  1  0  0  0  0
 22 20  1  0  0  0  0
 25 26  1  6  0  0  0
 25 27  1  0  0  0  0
 27 28  1  0  0  0  0
M  END
>  <minimizedAffinity>
-8.84840488

>  <minimizedRMSD>
0.67582202

$$$$
