
 OpenBabel04082420183D

 29 32  0  0  1  0  0  0  0  0999 V2000
    5.7590   51.4060    2.1790 C   0  0  0  0  0  2  0  0  0  0  0  0
    4.6020   50.8780    1.4190 C   0  0  0  0  0  0  0  0  0  0  0  0
    3.6900   50.4470    0.8310 N   0  0  0  0  0  0  0  0  0  0  0  0
    6.0580   52.7490    1.6060 C   0  0  0  0  0  2  0  0  0  0  0  0
    5.4260   53.9010    2.3730 C   0  0  1  0  0  3  0  0  0  0  0  0
    6.3960   54.7860    3.0630 C   0  0  0  0  0  2  0  0  0  0  0  0
    7.2010   55.5940    2.1010 C   0  0  0  0  0  2  0  0  0  0  0  0
    6.4230   56.1380    0.9220 C   0  0  1  0  0  3  0  0  0  0  0  0
    4.9990   56.1550    1.4180 C   0  0  0  0  0  2  0  0  0  0  0  0
    4.5780   54.6600    1.4160 C   0  0  0  0  0  2  0  0  0  0  0  0
    6.9430   57.3260    0.3500 N   0  0  0  0  0  0  0  0  0  0  0  0
    8.0860   57.4810   -0.3250 C   0  0  1  0  0  3  0  0  0  0  0  0
    8.1400   58.8080   -0.6730 N   0  0  0  0  0  0  0  0  0  0  0  0
    7.0650   59.4560   -0.2260 C   0  0  0  0  0  0  0  0  0  0  0  0
    8.9000   59.2400   -1.2000 H   0  0  0  0  0  0  0  0  0  0  0  0
    6.2880   58.5210    0.4310 C   0  0  0  0  0  0  0  0  0  0  0  0
    6.6500   60.7800   -0.3100 C   0  0  0  0  0  2  0  0  0  0  0  0
    5.1190   59.0030    0.9690 C   0  0  0  0  0  0  0  0  0  0  0  0
    4.7290   60.3220    0.8720 C   0  0  0  0  0  0  0  0  0  0  0  0
    4.1170   58.3940    1.6740 C   0  0  0  0  0  3  0  0  0  0  0  0
    5.5130   61.2190    0.2200 N   0  0  0  0  0  0  0  0  0  0  0  0
    3.5510   60.5000    1.4880 N   0  0  0  0  0  0  0  0  0  0  0  0
    5.2380   62.1990    0.1410 H   0  0  0  0  0  0  0  0  0  0  0  0
    3.1570   59.3280    1.9890 C   0  0  0  0  0  3  0  0  0  0  0  0
    3.0440   61.3820    1.5610 H   0  0  0  0  0  0  0  0  0  0  0  0
    9.1520   56.5470   -0.6950 C   0  0  1  0  0  3  0  0  0  0  0  0
   10.1110   57.3130   -1.6410 C   0  0  0  0  0  1  0  0  0  0  0  0
   10.0060   56.2910    0.4240 O   0  0  0  0  0  0  0  0  0  0  0  0
    9.4190   55.8220    1.0040 H   0  0  0  0  0  0  0  0  0  0  0  0
  2  1  1  0  0  0  0
  3  2  3  0  0  0  0
  4  1  1  0  0  0  0
  5  4  1  6  0  0  0
  5  6  1  0  0  0  0
  7  6  1  0  0  0  0
  8 11  1  1  0  0  0
  8  9  1  0  0  0  0
  8  7  1  0  0  0  0
 10  9  1  0  0  0  0
 10  5  1  0  0  0  0
 11 16  1  0  0  0  0
 12 26  1  1  0  0  0
 12 11  1  0  0  0  0
 13 12  1  0  0  0  0
 13 14  1  0  0  0  0
 14 16  2  0  0  0  0
 15 13  1  0  0  0  0
 16 18  1  0  0  0  0
 17 14  1  0  0  0  0
 17 21  1  0  0  0  0
 18 20  1  0  0  0  0
 19 18  2  0  0  0  0
 19 22  1  0  0  0  0
 20 24  2  0  0  0  0
 21 19  1  0  0  0  0
 22 25  1  0  0  0  0
 22 24  1  0  0  0  0
 23 21  1  0  0  0  0
 26 27  1  6  0  0  0
 26 28  1  0  0  0  0
 28 29  1  0  0  0  0
M  END
>  <minimizedAffinity>
-8.47948265

>  <minimizedRMSD>
0.491908163

$$$$
