
 OpenBabel04082420153D

 21 23  0  0  0  0  0  0  0  0999 V2000
  -12.2320    1.7530   14.3530 C   0  0  0  0  0  0  0  0  0  0  0  0
  -11.9350    2.5220   12.1310 C   0  0  0  0  0  0  0  0  0  0  0  0
  -11.6250    3.2610    9.8320 C   0  0  0  0  0  0  0  0  0  0  0  0
  -11.9330    4.8720   11.5850 C   0  0  0  0  0  3  0  0  0  0  0  0
  -12.0320    3.8470   12.5020 C   0  0  0  0  0  0  0  0  0  0  0  0
  -12.3420    5.5280   14.2580 C   0  0  0  0  0  1  0  0  0  0  0  0
  -12.2370    4.0970   13.8570 C   0  0  0  0  0  0  0  0  0  0  0  0
  -12.3350    3.0640   14.7660 C   0  0  0  0  0  3  0  0  0  0  0  0
  -12.3220    0.7980   15.1940 O   0  0  0  0  0  0  0  0  0  0  0  0
  -12.0340    1.5170   13.0440 N   0  0  0  0  0  0  0  0  0  0  0  0
  -11.9550    0.5520   12.7240 H   0  0  0  0  0  0  0  0  0  0  0  0
  -11.7320    2.2560   10.7940 C   0  0  0  0  0  3  0  0  0  0  0  0
  -11.7270    4.5760   10.2320 C   0  0  0  0  0  3  0  0  0  0  0  0
  -11.4130    2.9280    8.4200 C   0  0  0  0  0  0  0  0  0  0  0  0
  -12.3060    2.2040    7.6620 C   0  0  0  0  0  0  0  0  0  0  0  0
  -12.0870    1.8960    6.3290 C   0  0  0  0  0  3  0  0  0  0  0  0
  -13.7840    1.6510    8.4130 Cl  0  0  0  0  0  0  0  0  0  0  0  0
  -10.9400    2.3140    5.7040 C   0  0  0  0  0  0  0  0  0  0  0  0
  -10.0190    3.0450    6.4350 C   0  0  0  0  0  3  0  0  0  0  0  0
  -10.7540    1.9810    4.3470 N   0  0  0  0  0  1  0  0  0  0  0  0
  -10.2500    3.3450    7.7610 C   0  0  0  0  0  3  0  0  0  0  0  0
  1  8  1  0  0  0  0
  1  9  2  0  0  0  0
  2  5  1  0  0  0  0
  2 10  1  0  0  0  0
  3 13  2  0  0  0  0
  3 12  1  0  0  0  0
  4  5  2  0  0  0  0
  5  7  1  0  0  0  0
  7  6  1  0  0  0  0
  7  8  2  0  0  0  0
 10  1  1  0  0  0  0
 11 10  1  0  0  0  0
 12  2  2  0  0  0  0
 13  4  1  0  0  0  0
 14  3  1  0  0  0  0
 15 17  1  0  0  0  0
 15 14  2  0  0  0  0
 16 15  1  0  0  0  0
 18 16  2  0  0  0  0
 18 19  1  0  0  0  0
 19 21  2  0  0  0  0
 20 18  1  0  0  0  0
 21 14  1  0  0  0  0
M  END
>  <minimizedAffinity>
-9.0151062

>  <minimizedRMSD>
0.211613044

$$$$
