
 OpenBabel04082420143D

 23 25  0  0  1  0  0  0  0  0999 V2000
  -15.2210   10.8160   31.5690 C   0  0  2  0  0  3  0  0  0  0  0  0
  -15.3370    9.3560   31.1790 C   0  0  1  0  0  3  0  0  0  0  0  0
  -16.2810    8.8470   32.2460 C   0  0  2  0  0  3  0  0  0  0  0  0
  -17.2140    7.7830   31.7210 C   0  0  0  0  0  1  0  0  0  0  0  0
  -17.0160    9.9930   32.7380 N   0  0  0  0  0  4  0  0  0  0  0  0
  -16.8480   10.1840   33.7260 H   0  0  0  0  0  0  0  0  0  0  0  0
  -18.0200    9.8280   32.8070 H   0  0  0  0  0  0  0  0  0  0  0  0
  -16.6810   11.1040   31.8790 C   0  0  1  0  0  3  0  0  0  0  0  0
  -16.8600   12.4110   32.5370 C   0  0  1  0  0  3  0  0  0  0  0  0
  -17.9220   13.2100   32.6090 N   0  0  0  0  0  0  0  0  0  0  0  0
  -17.6310   14.3090   33.3160 C   0  0  0  0  0  0  0  0  0  0  0  0
  -18.8290   13.0130   32.1840 H   0  0  0  0  0  0  0  0  0  0  0  0
  -18.3250   15.4510   33.7050 C   0  0  0  0  0  3  0  0  0  0  0  0
  -16.3170   14.1900   33.7070 C   0  0  0  0  0  0  0  0  0  0  0  0
  -17.6710   16.4130   34.4620 C   0  0  0  0  0  3  0  0  0  0  0  0
  -16.3640   16.2680   34.8370 C   0  0  0  0  0  3  0  0  0  0  0  0
  -15.6560   15.1380   34.4600 C   0  0  0  0  0  3  0  0  0  0  0  0
  -15.8770   13.0240   33.2170 N   0  0  0  0  0  0  0  0  0  0  0  0
  -14.9340   12.6560   33.3420 H   0  0  0  0  0  0  0  0  0  0  0  0
  -14.7920   11.6030   30.5090 O   0  0  0  0  0  0  0  0  0  0  0  0
  -14.7190   12.5190   30.7530 H   0  0  0  0  0  0  0  0  0  0  0  0
  -15.9120    9.3270   29.9080 O   0  0  0  0  0  0  0  0  0  0  0  0
  -15.9850    8.4120   29.6640 H   0  0  0  0  0  0  0  0  0  0  0  0
  1 20  1  6  0  0  0
  1  8  1  0  0  0  0
  2 22  1  6  0  0  0
  2  1  1  0  0  0  0
  2  3  1  0  0  0  0
  3  4  1  6  0  0  0
  3  5  1  0  0  0  0
  5  7  1  0  0  0  0
  5  6  1  0  0  0  0
  8  9  1  1  0  0  0
  8  5  1  0  0  0  0
  9 10  1  1  0  0  0
  9 18  1  0  0  0  0
 10 11  1  0  0  0  0
 11 13  2  0  0  0  0
 11 14  1  0  0  0  0
 12 10  1  0  0  0  0
 13 15  1  0  0  0  0
 14 17  2  0  0  0  0
 15 16  2  0  0  0  0
 17 16  1  0  0  0  0
 18 19  1  0  0  0  0
 18 14  1  0  0  0  0
 20 21  1  0  0  0  0
 23 22  1  0  0  0  0
M  END
>  <minimizedAffinity>
-6.22591877

>  <minimizedRMSD>
1.02720726

$$$$
