
 OpenBabel04082420083D

 28 30  0  0  0  0  0  0  0  0999 V2000
    2.6600  -11.0970   -5.6610 C   0  0  0  0  0  0  0  0  0  0  0  0
    3.5450  -10.3700   -7.7880 C   0  0  0  0  0  3  0  0  0  0  0  0
    3.3180  -10.1650   -6.4210 C   0  0  0  0  0  3  0  0  0  0  0  0
    3.1190  -11.5120   -8.4310 C   0  0  0  0  0  0  0  0  0  0  0  0
    2.4580  -12.4450   -7.6620 C   0  0  0  0  0  0  0  0  0  0  0  0
    1.9190  -13.9100   -8.4780 Cl  0  0  0  0  0  0  0  0  0  0  0  0
    2.2280  -12.2570   -6.3170 C   0  0  0  0  0  3  0  0  0  0  0  0
    3.3600  -11.7050   -9.8560 C   0  0  0  0  0  0  0  0  0  0  0  0
    4.6280  -11.8480  -10.3730 C   0  0  0  0  0  3  0  0  0  0  0  0
    4.8310  -12.0270  -11.7400 C   0  0  0  0  0  3  0  0  0  0  0  0
    3.7740  -12.0660  -12.6240 C   0  0  0  0  0  0  0  0  0  0  0  0
    3.9870  -12.2440  -13.9810 C   0  0  0  0  0  0  0  0  0  0  0  0
    2.5040  -11.9230  -12.1080 C   0  0  0  0  0  0  0  0  0  0  0  0
    5.3920  -12.3940  -14.4860 C   0  0  0  0  0  1  0  0  0  0  0  0
    2.9150  -12.2810  -14.8530 C   0  0  0  0  0  3  0  0  0  0  0  0
    1.6570  -12.1340  -14.3070 C   0  0  0  0  0  0  0  0  0  0  0  0
    0.6650  -12.1680  -15.1010 O   0  0  0  0  0  0  0  0  0  0  0  0
    1.4700  -11.9620  -12.9770 N   0  0  0  0  0  0  0  0  0  0  0  0
    0.5200  -11.8580  -12.6210 H   0  0  0  0  0  0  0  0  0  0  0  0
    2.3060  -11.7460  -10.7540 C   0  0  0  0  0  3  0  0  0  0  0  0
    2.3860  -10.9560   -4.2320 C   0  0  0  0  0  0  0  0  0  0  0  0
    2.1870   -9.7060   -3.6040 N   0  0  0  0  0  0  0  0  0  0  0  0
    2.0730   -8.8830   -4.1970 H   0  0  0  0  0  0  0  0  0  0  0  0
    2.3230  -11.9900   -3.5220 O   0  0  0  0  0  0  0  0  0  0  0  0
    2.1330   -9.5230   -2.1560 C   0  0  0  0  0  2  0  0  0  0  0  0
    3.5070   -9.3970   -1.5440 C   0  0  0  0  0  2  0  0  0  0  0  0
    3.5130   -9.7200   -0.1960 O   0  0  0  0  0  0  0  0  0  0  0  0
    4.7950   -9.4810    0.2920 C   0  0  0  0  0  1  0  0  0  0  0  0
  1 21  1  0  0  0  0
  2  3  1  0  0  0  0
  3  1  2  0  0  0  0
  4  2  2  0  0  0  0
  4  5  1  0  0  0  0
  5  7  2  0  0  0  0
  6  5  1  0  0  0  0
  7  1  1  0  0  0  0
  8  4  1  0  0  0  0
  9  8  1  0  0  0  0
 10  9  2  0  0  0  0
 11 13  2  0  0  0  0
 11 10  1  0  0  0  0
 12 11  1  0  0  0  0
 13 20  1  0  0  0  0
 14 12  1  0  0  0  0
 15 16  1  0  0  0  0
 15 12  2  0  0  0  0
 16 18  1  0  0  0  0
 17 16  2  0  0  0  0
 18 19  1  0  0  0  0
 18 13  1  0  0  0  0
 20  8  2  0  0  0  0
 21 22  1  0  0  0  0
 21 24  2  0  0  0  0
 22 25  1  0  0  0  0
 23 22  1  0  0  0  0
 25 26  1  0  0  0  0
 26 27  1  0  0  0  0
 27 28  1  0  0  0  0
M  END
>  <minimizedAffinity>
-9.07441616

>  <minimizedRMSD>
0.675225019

$$$$
