
 OpenBabel04082420113D

 19 20  0  0  1  0  0  0  0  0999 V2000
  -16.9190   10.8710   32.1310 C   0  0  1  0  0  3  0  0  0  0  0  0
  -15.6700   11.3840   31.4340 C   0  0  1  0  0  3  0  0  0  0  0  0
  -14.6930   10.2410   31.4860 C   0  0  1  0  0  3  0  0  0  0  0  0
  -15.4470    9.1820   32.2510 C   0  0  2  0  0  3  0  0  0  0  0  0
  -16.1730    8.3190   31.2470 C   0  0  0  0  0  1  0  0  0  0  0  0
  -16.3510    9.9270   33.0780 N   0  0  0  0  0  0  0  0  0  0  0  0
  -15.6270   10.6560   34.0780 C   0  0  0  0  0  1  0  0  0  0  0  0
  -17.6260   11.9910   32.8150 C   0  0  0  0  0  0  0  0  0  0  0  0
  -18.7380   11.7710   33.5980 C   0  0  0  0  0  3  0  0  0  0  0  0
  -19.3930   12.7800   34.2280 C   0  0  0  0  0  3  0  0  0  0  0  0
  -18.9470   14.0750   34.0930 C   0  0  0  0  0  0  0  0  0  0  0  0
  -17.8380   14.3070   33.3150 C   0  0  0  0  0  3  0  0  0  0  0  0
  -17.1760   13.2850   32.6770 C   0  0  0  0  0  3  0  0  0  0  0  0
  -19.5800   15.1450   34.7170 O   0  0  0  0  0  0  0  0  0  0  0  0
  -19.1310   16.4480   34.3980 C   0  0  0  0  0  1  0  0  0  0  0  0
  -15.9550   11.6670   30.1030 O   0  0  0  0  0  0  0  0  0  0  0  0
  -15.1740   11.9880   29.6690 H   0  0  0  0  0  0  0  0  0  0  0  0
  -14.4270    9.7440   30.1940 O   0  0  0  0  0  0  0  0  0  0  0  0
  -13.8090    9.0220   30.2260 H   0  0  0  0  0  0  0  0  0  0  0  0
  1  8  1  1  0  0  0
  1  6  1  0  0  0  0
  2 16  1  6  0  0  0
  2  3  1  0  0  0  0
  2  1  1  0  0  0  0
  3 18  1  6  0  0  0
  3  4  1  0  0  0  0
  4  5  1  6  0  0  0
  4  6  1  0  0  0  0
  6  7  1  0  0  0  0
  8  9  1  0  0  0  0
  9 10  2  0  0  0  0
 11 10  1  0  0  0  0
 11 14  1  0  0  0  0
 12 11  2  0  0  0  0
 13  8  2  0  0  0  0
 13 12  1  0  0  0  0
 15 14  1  0  0  0  0
 17 16  1  0  0  0  0
 18 19  1  0  0  0  0
M  END
>  <minimizedAffinity>
-6.02048683

>  <minimizedRMSD>
1.39269376

$$$$
