
 OpenBabel04082420183D

 12 12  0  0  0  0  0  0  0  0999 V2000
   16.5530    4.6090   14.5660 C   0  0  0  0  0  3  0  0  0  0  0  0
   15.2140    4.2970   14.6800 C   0  0  0  0  0  3  0  0  0  0  0  0
   14.7840    3.0620   15.1160 C   0  0  0  0  0  3  0  0  0  0  0  0
   15.7190    2.1050   15.4480 C   0  0  0  0  0  0  0  0  0  0  0  0
   17.0620    2.3890   15.3430 C   0  0  0  0  0  3  0  0  0  0  0  0
   17.4770    3.6290   14.9060 C   0  0  0  0  0  3  0  0  0  0  0  0
   15.1700    0.5470   15.9970 S   0  0  0  0  0  0  0  0  0  0  0  0
   13.6860    0.4030   15.8010 O   0  0  0  0  0  0  0  0  0  0  0  0
   15.4430    0.3930   17.4800 O   0  0  0  0  0  0  0  0  0  0  0  0
   16.0390   -0.6850   15.1610 N   0  0  0  0  0  0  0  0  0  0  0  0
   16.7590   -0.5120   14.4590 H   0  0  0  0  0  0  0  0  0  0  0  0
   15.7180   -1.5980   15.4830 H   0  0  0  0  0  0  0  0  0  0  0  0
  1  2  2  0  0  0  0
  1  6  1  0  0  0  0
  2  3  1  0  0  0  0
  3  4  2  0  0  0  0
  4  7  1  0  0  0  0
  5  4  1  0  0  0  0
  6  5  2  0  0  0  0
  7  9  2  0  0  0  0
  8  7  2  0  0  0  0
 10 12  1  0  0  0  0
 10  7  1  0  0  0  0
 11 10  1  0  0  0  0
M  END
>  <minimizedAffinity>
-7.49996758

>  <minimizedRMSD>
0.568782032

$$$$
