
 OpenBabel04082419563D

 23 24  0  0  0  0  0  0  0  0999 V2000
   80.1180    4.3620   30.9570 N   0  0  0  0  0  0  0  0  0  0  0  0
   79.8550    3.3960   31.1510 H   0  0  0  0  0  0  0  0  0  0  0  0
   81.4810    4.7490   30.8730 C   0  0  0  0  0  2  0  0  0  0  0  0
   82.0440    4.6220   32.2690 C   0  0  0  0  0  0  0  0  0  0  0  0
   83.3410    5.0440   32.5270 C   0  0  0  0  0  3  0  0  0  0  0  0
   83.9020    4.9500   33.7830 C   0  0  0  0  0  3  0  0  0  0  0  0
   83.1810    4.4280   34.8270 C   0  0  0  0  0  0  0  0  0  0  0  0
   81.8910    4.0080   34.5770 C   0  0  0  0  0  3  0  0  0  0  0  0
   81.3140    4.0970   33.3130 C   0  0  0  0  0  3  0  0  0  0  0  0
   83.7420    4.3100   36.1820 C   0  0  0  0  0  0  0  0  0  0  0  0
   82.9920    4.0330   37.1450 O   0  0  0  0  0  1  0  0  0  0  0  0
   85.0820    4.4990   36.4280 O   0  0  0  0  0  0  0  0  0  0  0  0
   78.9460    5.5510   30.7270 S   0  0  0  0  0  0  0  0  0  0  0  0
   77.5860    4.9190   30.8040 O   0  0  0  0  0  0  0  0  0  0  0  0
   79.0550    6.5790   31.8270 O   0  0  0  0  0  0  0  0  0  0  0  0
   79.0700    6.3890   29.1520 C   0  0  0  0  0  0  0  0  0  0  0  0
   78.9920    7.7150   29.0500 C   0  0  0  0  0  3  0  0  0  0  0  0
   79.1180    8.2720   27.7890 C   0  0  0  0  0  3  0  0  0  0  0  0
   79.3580    6.8840   26.7090 S   0  0  0  0  0  0  0  0  0  0  0  0
   79.2710    5.6400   28.0330 C   0  0  0  0  0  0  0  0  0  0  0  0
   79.4140    4.2270   27.8020 C   0  0  0  0  0  0  0  0  0  0  0  0
   79.0140    3.4140   28.6570 O   0  0  0  0  0  1  0  0  0  0  0  0
   79.9870    3.7640   26.6480 O   0  0  0  0  0  0  0  0  0  0  0  0
  1  2  1  0  0  0  0
  3  1  1  0  0  0  0
  3  4  1  0  0  0  0
  4  5  2  0  0  0  0
  4  9  1  0  0  0  0
  5  6  1  0  0  0  0
  6  7  2  0  0  0  0
  7 10  1  0  0  0  0
  8  7  1  0  0  0  0
  9  8  2  0  0  0  0
 10 12  2  0  0  0  0
 10 11  1  0  0  0  0
 13 14  2  0  0  0  0
 13  1  1  0  0  0  0
 13 15  2  0  0  0  0
 16 13  1  0  0  0  0
 17 16  1  0  0  0  0
 18 17  2  0  0  0  0
 19 18  1  0  0  0  0
 19 20  1  0  0  0  0
 20 16  2  0  0  0  0
 21 20  1  0  0  0  0
 21 22  1  0  0  0  0
 23 21  2  0  0  0  0
M  END
>  <minimizedAffinity>
-5.94713306

>  <minimizedRMSD>
0.816283941

$$$$
