
 OpenBabel04082420143D

 11 11  0  0  1  0  0  0  0  0999 V2000
    5.5530   11.0310   44.6600 C   0  0  0  0  0  1  0  0  0  0  0  0
    4.7470   12.1590   44.1510 C   0  0  1  0  0  3  0  0  0  0  0  0
    4.6280   12.3750   42.7970 C   0  0  0  0  0  3  0  0  0  0  0  0
    3.8780   13.4260   42.2860 C   0  0  0  0  0  0  0  0  0  0  0  0
    3.7510   13.6600   40.8260 C   0  0  0  0  0  1  0  0  0  0  0  0
    3.2740   14.2210   43.1880 N   0  0  0  0  0  0  0  0  0  0  0  0
    2.7150   15.0020   42.8460 H   0  0  0  0  0  0  0  0  0  0  0  0
    3.3670   14.0390   44.5190 C   0  0  2  0  0  3  0  0  0  0  0  0
    2.7030   14.9150   45.4370 N   0  0  0  0  0  1  0  0  0  0  0  0
    4.1010   13.0130   44.9640 N   0  0  0  0  0  0  0  0  0  0  0  0
    4.1750   12.8710   45.9710 H   0  0  0  0  0  0  0  0  0  0  0  0
  2  1  1  6  0  0  0
  2 10  1  0  0  0  0
  3  2  1  0  0  0  0
  4  3  2  0  0  0  0
  4  6  1  0  0  0  0
  5  4  1  0  0  0  0
  6  8  1  0  0  0  0
  7  6  1  0  0  0  0
  8 10  1  0  0  0  0
  8  9  1  1  0  0  0
 10 11  1  0  0  0  0
M  END
>  <minimizedAffinity>
-3.76625109

>  <minimizedRMSD>
0.282276511

$$$$
