
 OpenBabel04082419583D

 24 26  0  0  0  0  0  0  0  0999 V2000
   -5.0970    8.2680   13.7650 N   0  0  0  0  0  0  0  0  0  0  0  0
   -3.9640    7.7450   14.3110 C   0  0  0  0  0  2  0  0  0  0  0  0
   -4.3050    6.7400   15.1820 C   0  0  0  0  0  0  0  0  0  0  0  0
   -5.6780    6.6700   15.1490 C   0  0  0  0  0  0  0  0  0  0  0  0
   -6.1280    7.6250   14.2660 N   0  0  0  0  0  0  0  0  0  0  0  0
   -7.1060    7.8060   14.0370 H   0  0  0  0  0  0  0  0  0  0  0  0
   -5.1450    9.3260   12.8190 C   0  0  0  0  0  0  0  0  0  0  0  0
   -5.9400   10.4220   13.1060 C   0  0  0  0  0  0  0  0  0  0  0  0
   -6.6760   10.5250   14.2610 C   0  0  0  0  0  3  0  0  0  0  0  0
   -5.9760   11.4440   12.1750 C   0  0  0  0  0  0  0  0  0  0  0  0
   -7.4580   11.6320   14.5160 C   0  0  0  0  0  3  0  0  0  0  0  0
   -7.4920   12.6480   13.5860 C   0  0  0  0  0  3  0  0  0  0  0  0
   -6.7560   12.5540   12.4240 C   0  0  0  0  0  3  0  0  0  0  0  0
   -5.2430   11.3570   11.0120 C   0  0  0  0  0  3  0  0  0  0  0  0
   -4.4490   10.2590   10.7280 C   0  0  0  0  0  3  0  0  0  0  0  0
   -4.4170    9.2520   11.6510 C   0  0  0  0  0  3  0  0  0  0  0  0
   -3.4420    5.9330   15.9610 N   0  0  0  0  0  0  0  0  0  0  0  0
   -2.0600    5.7460   15.7340 C   0  0  0  0  0  0  0  0  0  0  0  0
   -1.5310    6.3000   14.7450 O   0  0  0  0  0  0  0  0  0  0  0  0
   -1.2360    4.9490   16.5880 N   0  0  0  0  0  1  0  0  0  0  0  0
   -3.8540    5.4450   16.7560 H   0  0  0  0  0  0  0  0  0  0  0  0
   -6.5390    5.7720   15.8880 C   0  0  0  0  0  0  0  0  0  0  0  0
   -6.1110    4.7520   16.4460 O   0  0  0  0  0  0  0  0  0  0  0  0
   -7.9240    6.0660   15.9800 N   0  0  0  0  0  1  0  0  0  0  0  0
  1  5  1  0  0  0  0
  1  2  1  0  0  0  0
  2  3  1  0  0  0  0
  3 17  1  0  0  0  0
  4  3  2  0  0  0  0
  4 22  1  0  0  0  0
  5  4  1  0  0  0  0
  6  5  1  0  0  0  0
  7  8  1  0  0  0  0
  7  1  1  0  0  0  0
  8  9  1  0  0  0  0
  9 11  2  0  0  0  0
 10 13  1  0  0  0  0
 10  8  2  0  0  0  0
 12 11  1  0  0  0  0
 13 12  2  0  0  0  0
 14 10  1  0  0  0  0
 15 14  2  0  0  0  0
 15 16  1  0  0  0  0
 16  7  2  0  0  0  0
 17 21  1  0  0  0  0
 18 17  1  0  0  0  0
 18 20  1  0  0  0  0
 19 18  2  0  0  0  0
 22 24  1  0  0  0  0
 22 23  2  0  0  0  0
M  END
>  <minimizedAffinity>
-9.46857834

>  <minimizedRMSD>
0.297003329

$$$$
