
 OpenBabel04082420173D

 26 28  0  0  1  0  0  0  0  0999 V2000
   -5.3030    8.8520   13.7280 N   0  0  0  0  0  0  0  0  0  0  0  0
   -6.2830    8.1870   14.3090 N   0  0  0  0  0  0  0  0  0  0  0  0
   -7.2650    8.4520   14.2290 H   0  0  0  0  0  0  0  0  0  0  0  0
   -5.8640    7.1370   15.0090 C   0  0  1  0  0  3  0  0  0  0  0  0
   -4.4720    7.1220   14.8670 C   0  0  0  0  0  0  0  0  0  0  0  0
   -4.1840    8.2050   14.0660 C   0  0  0  0  0  3  0  0  0  0  0  0
   -5.4600   10.0180   12.9170 C   0  0  0  0  0  0  0  0  0  0  0  0
   -4.9870   10.1170   11.6390 C   0  0  0  0  0  3  0  0  0  0  0  0
   -5.1660   11.2790   10.8850 C   0  0  0  0  0  3  0  0  0  0  0  0
   -5.8340   12.3520   11.4400 C   0  0  0  0  0  3  0  0  0  0  0  0
   -6.3150   12.2590   12.7280 C   0  0  0  0  0  0  0  0  0  0  0  0
   -6.1290   11.0880   13.4720 C   0  0  0  0  0  0  0  0  0  0  0  0
   -6.9840   13.3460   13.2680 C   0  0  0  0  0  3  0  0  0  0  0  0
   -6.6260   11.0300   14.7670 C   0  0  0  0  0  3  0  0  0  0  0  0
   -7.2930   12.1060   15.3130 C   0  0  0  0  0  0  0  0  0  0  0  0
   -7.4740   13.2550   14.5750 C   0  0  0  0  0  3  0  0  0  0  0  0
   -7.7950   12.0600   16.6060 O   0  0  0  0  0  0  0  0  0  0  0  0
   -7.7380   10.8720   17.3730 C   0  0  0  0  0  1  0  0  0  0  0  0
   -6.6330    6.1680   15.7820 C   0  0  0  0  0  0  0  0  0  0  0  0
   -8.0000    6.4100   16.0340 N   0  0  0  0  0  1  0  0  0  0  0  0
   -6.1120    5.1240   16.2310 O   0  0  0  0  0  0  0  0  0  0  0  0
   -3.5940    6.1700   15.4480 N   0  0  0  0  0  0  0  0  0  0  0  0
   -2.2320    6.0640   15.1310 C   0  0  0  0  0  0  0  0  0  0  0  0
   -1.3650    5.2810   15.9350 N   0  0  0  0  0  1  0  0  0  0  0  0
   -1.7660    6.6630   14.1320 O   0  0  0  0  0  0  0  0  0  0  0  0
   -3.9770    5.5230   16.1380 H   0  0  0  0  0  0  0  0  0  0  0  0
  1  6  1  0  0  0  0
  1  2  1  0  0  0  0
  2  4  1  0  0  0  0
  3  2  1  0  0  0  0
  4 19  1  1  0  0  0
  5  4  1  0  0  0  0
  5 22  1  0  0  0  0
  6  5  2  0  0  0  0
  7 12  1  0  0  0  0
  7  1  1  0  0  0  0
  8  7  2  0  0  0  0
  9 10  2  0  0  0  0
  9  8  1  0  0  0  0
 10 11  1  0  0  0  0
 11 13  2  0  0  0  0
 11 12  1  0  0  0  0
 12 14  2  0  0  0  0
 13 16  1  0  0  0  0
 14 15  1  0  0  0  0
 15 17  1  0  0  0  0
 16 15  2  0  0  0  0
 17 18  1  0  0  0  0
 19 20  1  0  0  0  0
 19 21  2  0  0  0  0
 22 26  1  0  0  0  0
 23 22  1  0  0  0  0
 23 24  1  0  0  0  0
 25 23  2  0  0  0  0
M  END
>  <minimizedAffinity>
-9.83524227

>  <minimizedRMSD>
0.858975112

$$$$
