
 OpenBabel04082419583D

 21 22  0  0  1  0  0  0  0  0999 V2000
  -12.3780  -12.7240   50.0420 C   0  0  1  0  0  3  0  0  0  0  0  0
  -13.7200  -12.1350   49.8660 C   0  0  0  0  0  0  0  0  0  0  0  0
  -14.8440  -12.8450   50.2080 C   0  0  0  0  0  3  0  0  0  0  0  0
  -16.0840  -12.2550   50.0350 C   0  0  0  0  0  3  0  0  0  0  0  0
  -16.2640  -10.9840   49.5350 C   0  0  0  0  0  0  0  0  0  0  0  0
  -15.1320  -10.2750   49.1920 C   0  0  0  0  0  3  0  0  0  0  0  0
  -13.8890  -10.8500   49.3600 C   0  0  0  0  0  3  0  0  0  0  0  0
  -17.5420  -10.4390   49.3820 O   0  0  0  0  0  0  0  0  0  0  0  0
  -17.6650   -9.5630   49.0380 H   0  0  0  0  0  0  0  0  0  0  0  0
  -11.6560  -13.0780   48.7920 C   0  0  0  0  0  0  0  0  0  0  0  0
  -10.4930  -11.7460   48.4770 Cl  0  0  0  0  0  0  0  0  0  0  0  0
  -10.6660  -14.5370   49.0730 Cl  0  0  0  0  0  0  0  0  0  0  0  0
  -12.6180  -13.3420   47.3640 Cl  0  0  0  0  0  0  0  0  0  0  0  0
  -11.5570  -12.0150   51.0600 C   0  0  0  0  0  0  0  0  0  0  0  0
  -10.2290  -11.6910   50.8680 C   0  0  0  0  0  3  0  0  0  0  0  0
   -9.4680  -11.0350   51.8060 C   0  0  0  0  0  3  0  0  0  0  0  0
  -10.0540  -10.6800   53.0010 C   0  0  0  0  0  0  0  0  0  0  0  0
  -11.3930  -10.9790   53.2610 C   0  0  0  0  0  3  0  0  0  0  0  0
  -12.0890  -11.6290   52.2900 C   0  0  0  0  0  3  0  0  0  0  0  0
   -9.3740  -10.0160   54.0170 O   0  0  0  0  0  0  0  0  0  0  0  0
   -9.7780   -9.7720   54.8410 H   0  0  0  0  0  0  0  0  0  0  0  0
  1 10  1  6  0  0  0
  1 14  1  0  0  0  0
  2  1  1  0  0  0  0
  2  3  1  0  0  0  0
  4  3  2  0  0  0  0
  5  4  1  0  0  0  0
  6  7  1  0  0  0  0
  6  5  2  0  0  0  0
  7  2  2  0  0  0  0
  8  5  1  0  0  0  0
  9  8  1  0  0  0  0
 10 12  1  0  0  0  0
 11 10  1  0  0  0  0
 13 10  1  0  0  0  0
 14 19  1  0  0  0  0
 15 14  2  0  0  0  0
 15 16  1  0  0  0  0
 16 17  2  0  0  0  0
 17 18  1  0  0  0  0
 17 20  1  0  0  0  0
 19 18  2  0  0  0  0
 20 21  1  0  0  0  0
M  END
>  <minimizedAffinity>
-7.3200655

>  <minimizedRMSD>
0.656135976

$$$$
