
 OpenBabel04082420093D

 22 25  0  0  1  0  0  0  0  0999 V2000
  103.4760   22.6380   35.2640 C   0  0  1  0  0  0  0  0  0  0  0  0
  102.6050   23.6800   35.7750 C   0  0  0  0  0  0  0  0  0  0  0  0
  101.8800   24.7140   35.1500 C   0  0  0  0  0  3  0  0  0  0  0  0
  101.1390   25.5400   35.9570 C   0  0  0  0  0  3  0  0  0  0  0  0
  101.0740   25.4000   37.3270 C   0  0  0  0  0  3  0  0  0  0  0  0
  101.7810   24.3920   37.9310 C   0  0  0  0  0  3  0  0  0  0  0  0
  102.5490   23.5300   37.1380 C   0  0  0  0  0  0  0  0  0  0  0  0
  103.3890   22.3820   37.4670 C   0  0  1  0  0  3  0  0  0  0  0  0
  103.9060   21.8840   36.4130 N   0  0  1  0  0  0  0  0  0  0  0  0
  104.7440   20.7110   36.7710 C   0  0  0  0  0  2  0  0  0  0  0  0
  105.0260   20.9750   38.2250 C   0  0  0  0  0  2  0  0  0  0  0  0
  103.8120   21.6510   38.6220 N   0  0  0  0  0  0  0  0  0  0  0  0
  103.3530   21.6130   39.5320 H   0  0  0  0  0  0  0  0  0  0  0  0
  102.9090   21.8120   34.1920 C   0  0  0  0  0  0  0  0  0  0  0  0
  103.1260   20.4550   34.1600 C   0  0  0  0  0  3  0  0  0  0  0  0
  102.5840   19.7110   33.1280 C   0  0  0  0  0  3  0  0  0  0  0  0
  101.8210   20.3190   32.1250 C   0  0  0  0  0  0  0  0  0  0  0  0
  101.1290   19.3640   30.8030 Cl  0  0  0  0  0  0  0  0  0  0  0  0
  101.6150   21.6780   32.1730 C   0  0  0  0  0  3  0  0  0  0  0  0
  102.1620   22.4330   33.2160 C   0  0  0  0  0  3  0  0  0  0  0  0
  104.6590   23.2350   34.7410 O   0  0  0  0  0  0  0  0  0  0  0  0
  105.0260   23.7700   35.4340 H   0  0  0  0  0  0  0  0  0  0  0  0
  1 21  1  6  0  0  0
  1  2  1  0  0  0  0
  1  9  1  0  0  0  0
  2  7  1  0  0  0  0
  3  2  2  0  0  0  0
  3  4  1  0  0  0  0
  4  5  2  0  0  0  0
  5  6  1  0  0  0  0
  7  6  2  0  0  0  0
  8  7  1  1  0  0  0
  8 12  1  0  0  0  0
  9 10  1  6  0  0  0
  9  8  1  0  0  0  0
 10 11  1  0  0  0  0
 11 12  1  0  0  0  0
 12 13  1  0  0  0  0
 14  1  1  0  0  0  0
 15 14  1  0  0  0  0
 16 15  2  0  0  0  0
 17 19  2  0  0  0  0
 17 16  1  0  0  0  0
 18 17  1  0  0  0  0
 19 20  1  0  0  0  0
 20 14  2  0  0  0  0
 21 22  1  0  0  0  0
M  END
>  <minimizedAffinity>
-8.60850048

>  <minimizedRMSD>
0.549419701

$$$$
