
 OpenBabel04082420153D

 20 21  0  0  1  0  0  0  0  0999 V2000
   30.8230    6.5090   55.9780 C   0  0  2  0  0  3  0  0  0  0  0  0
   29.5110    6.4140   56.5400 N   0  0  0  0  0  4  0  0  0  0  0  0
   28.9360    7.2330   56.3360 H   0  0  0  0  0  0  0  0  0  0  0  0
   29.5120    6.4960   57.5560 H   0  0  0  0  0  0  0  0  0  0  0  0
   28.9150    5.1920   56.0820 C   0  0  1  0  0  3  0  0  0  0  0  0
   27.6890    5.4080   55.2260 C   0  0  0  0  0  1  0  0  0  0  0  0
   29.9830    4.4220   55.3320 C   0  0  2  0  0  3  0  0  0  0  0  0
   31.2440    5.0410   55.8540 C   0  0  1  0  0  3  0  0  0  0  0  0
   31.6650    7.1940   56.9840 C   0  0  0  0  0  0  0  0  0  0  0  0
   32.3520    7.7610   57.7960 C   0  0  0  0  0  0  0  0  0  0  0  0
   33.1480    8.4490   58.7690 C   0  0  0  0  0  0  0  0  0  0  0  0
   32.8530    8.2730   60.0970 C   0  0  0  0  0  3  0  0  0  0  0  0
   33.6190    8.9360   61.0450 C   0  0  0  0  0  3  0  0  0  0  0  0
   34.6640    9.7610   60.6850 C   0  0  0  0  0  3  0  0  0  0  0  0
   34.9640    9.9390   59.3470 C   0  0  0  0  0  3  0  0  0  0  0  0
   34.1960    9.2780   58.4310 C   0  0  0  0  0  3  0  0  0  0  0  0
   32.3240    4.9030   54.9950 O   0  0  0  0  0  0  0  0  0  0  0  0
   32.5850    3.9930   54.9200 H   0  0  0  0  0  0  0  0  0  0  0  0
   29.9030    4.6380   53.9680 O   0  0  0  0  0  0  0  0  0  0  0  0
   30.5730    4.1550   53.4970 H   0  0  0  0  0  0  0  0  0  0  0  0
  1  2  1  0  0  0  0
  1  9  1  1  0  0  0
  2  4  1  0  0  0  0
  3  2  1  0  0  0  0
  5  6  1  6  0  0  0
  5  2  1  0  0  0  0
  7 19  1  6  0  0  0
  7  8  1  0  0  0  0
  7  5  1  0  0  0  0
  8 17  1  6  0  0  0
  8  1  1  0  0  0  0
  9 10  3  0  0  0  0
 10 11  1  0  0  0  0
 11 12  1  0  0  0  0
 12 13  2  0  0  0  0
 14 13  1  0  0  0  0
 15 14  2  0  0  0  0
 16 11  2  0  0  0  0
 16 15  1  0  0  0  0
 18 17  1  0  0  0  0
 20 19  1  0  0  0  0
M  END
>  <minimizedAffinity>
-5.56166744

>  <minimizedRMSD>
0.450329721

$$$$
