
 OpenBabel04082420033D

 41 45  0  0  1  0  0  0  0  0999 V2000
    3.5530   24.1810   20.8470 C   0  0  0  0  0  3  0  0  0  0  0  0
    4.1540   24.2500   19.6080 C   0  0  0  0  0  0  0  0  0  0  0  0
    3.4910   23.7380   18.4890 C   0  0  0  0  0  3  0  0  0  0  0  0
    2.2480   23.1790   18.6750 C   0  0  2  0  0  3  0  0  0  0  0  0
    1.7070   23.1410   19.9240 N   0  0  0  0  0  0  0  0  0  0  0  0
    0.7830   22.7210   20.0320 H   0  0  0  0  0  0  0  0  0  0  0  0
    2.3060   23.6170   21.0150 C   0  0  0  0  0  0  0  0  0  0  0  0
    1.7180   23.5630   22.3130 N   0  0  0  0  0  0  0  0  0  0  0  0
    2.2700   23.9010   23.1010 H   0  0  0  0  0  0  0  0  0  0  0  0
    0.4250   23.0740   22.5750 C   0  0  1  0  0  3  0  0  0  0  0  0
   -0.6630   23.0070   21.7430 C   0  0  0  0  0  3  0  0  0  0  0  0
   -1.7160   22.4500   22.4420 C   0  0  0  0  0  0  0  0  0  0  0  0
   -1.2570   22.1900   23.6700 N   0  0  0  0  0  0  0  0  0  0  0  0
   -0.0060   22.5520   23.7530 N   0  0  0  0  0  0  0  0  0  0  0  0
   -1.8000   21.7720   24.4260 H   0  0  0  0  0  0  0  0  0  0  0  0
    0.5700   22.4580   24.5900 H   0  0  0  0  0  0  0  0  0  0  0  0
   -3.0680   22.1810   21.9770 C   0  0  0  0  0  0  0  0  0  0  0  0
   -3.7680   21.0830   22.4120 C   0  0  0  0  0  3  0  0  0  0  0  0
   -5.0520   20.8450   21.9590 C   0  0  0  0  0  3  0  0  0  0  0  0
   -5.6540   21.7040   21.0620 C   0  0  0  0  0  3  0  0  0  0  0  0
   -4.9430   22.8150   20.6220 C   0  0  0  0  0  3  0  0  0  0  0  0
   -3.6660   23.0530   21.0730 C   0  0  0  0  0  3  0  0  0  0  0  0
    5.7220   24.9510   19.3550 S   0  0  0  0  0  0  0  0  0  0  0  0
    6.1740   24.5600   17.9570 O   0  0  0  0  0  0  0  0  0  0  0  0
    6.7220   24.4280   20.3140 O   0  0  0  0  0  0  0  0  0  0  0  0
    5.6530   26.6910   19.4690 C   0  0  0  0  0  0  0  0  0  0  0  0
    4.5700   27.2580   20.0810 C   0  0  0  0  0  3  0  0  0  0  0  0
    4.5030   28.6310   20.1760 C   0  0  0  0  0  3  0  0  0  0  0  0
    5.4990   29.4510   19.6710 C   0  0  0  0  0  3  0  0  0  0  0  0
    6.5810   28.8550   19.0560 C   0  0  0  0  0  3  0  0  0  0  0  0
    6.6580   27.4780   18.9560 C   0  0  0  0  0  3  0  0  0  0  0  0
    1.5550   22.6360   17.5640 N   0  0  0  0  0  0  0  0  0  0  0  0
    2.0410   21.9290   17.0130 H   0  0  0  0  0  0  0  0  0  0  0  0
    0.2230   22.9950   17.1490 C   0  0  2  0  0  3  0  0  0  0  0  0
   -0.7560   22.5830   18.2270 C   0  0  0  0  0  2  0  0  0  0  0  0
   -1.4390   21.3020   18.0070 C   0  0  0  0  0  2  0  0  0  0  0  0
   -0.7800   20.2780   17.1800 C   0  0  2  0  0  3  0  0  0  0  0  0
    0.2440   20.7920   16.2020 C   0  0  0  0  0  2  0  0  0  0  0  0
   -0.1540   22.2350   15.8900 C   0  0  0  0  0  2  0  0  0  0  0  0
   -1.7370   19.5800   16.4000 O   0  0  0  0  0  0  0  0  0  0  0  0
   -1.3120   18.9200   15.8660 H   0  0  0  0  0  0  0  0  0  0  0  0
  1  7  2  0  0  0  0
  2  1  1  0  0  0  0
  3  4  1  0  0  0  0
  3  2  2  0  0  0  0
  4 32  1  1  0  0  0
  4  5  1  0  0  0  0
  5  6  1  0  0  0  0
  5  7  1  0  0  0  0
  7  8  1  0  0  0  0
  8  9  1  0  0  0  0
 10  8  1  6  0  0  0
 10 14  1  0  0  0  0
 11 12  2  0  0  0  0
 11 10  1  0  0  0  0
 12 13  1  0  0  0  0
 13 14  1  0  0  0  0
 13 15  1  0  0  0  0
 14 16  1  0  0  0  0
 17 18  1  0  0  0  0
 17 12  1  0  0  0  0
 19 18  2  0  0  0  0
 20 19  1  0  0  0  0
 21 20  2  0  0  0  0
 21 22  1  0  0  0  0
 22 17  2  0  0  0  0
 23 26  1  0  0  0  0
 23  2  1  0  0  0  0
 23 25  2  0  0  0  0
 24 23  2  0  0  0  0
 26 27  1  0  0  0  0
 27 28  2  0  0  0  0
 29 28  1  0  0  0  0
 30 29  2  0  0  0  0
 31 30  1  0  0  0  0
 31 26  2  0  0  0  0
 33 32  1  0  0  0  0
 34 32  1  1  0  0  0
 34 35  1  0  0  0  0
 36 35  1  0  0  0  0
 37 40  1  6  0  0  0
 37 36  1  0  0  0  0
 38 37  1  0  0  0  0
 39 38  1  0  0  0  0
 39 34  1  0  0  0  0
 41 40  1  0  0  0  0
M  END
>  <minimizedAffinity>
-7.71408987

>  <minimizedRMSD>
1.80901968

$$$$
