
 OpenBabel04082420133D

 40 45  0  0  1  0  0  0  0  0999 V2000
   22.3740    0.1900    6.4110 C   0  0  0  0  0  0  0  0  0  0  0  0
   23.1560   -0.0600    5.3110 C   0  0  0  0  0  2  0  0  0  0  0  0
   23.9300   -1.0870    5.6180 N   0  0  0  0  0  0  0  0  0  0  0  0
   24.6140   -1.4860    4.9750 H   0  0  0  0  0  0  0  0  0  0  0  0
   23.7300   -1.5500    6.8410 N   0  0  0  0  0  0  0  0  0  0  0  0
   22.7630   -0.7620    7.3440 C   0  0  0  0  0  3  0  0  0  0  0  0
   21.3700    1.2150    6.5650 N   0  0  0  0  0  0  0  0  0  0  0  0
   20.0770    1.0970    6.0560 C   0  0  0  0  0  0  0  0  0  0  0  0
   19.7940   -0.0540    5.5600 O   0  0  0  0  0  0  0  0  0  0  0  0
   21.6180    2.0670    7.0700 H   0  0  0  0  0  0  0  0  0  0  0  0
   19.0300    2.0970    6.0230 C   0  0  2  0  0  3  0  0  0  0  0  0
   19.1680    3.3560    6.5500 N   0  0  0  0  0  0  0  0  0  0  0  0
   18.0600    4.0260    6.3740 N   0  0  0  0  0  0  0  0  0  0  0  0
   20.0070    3.7150    7.0080 H   0  0  0  0  0  0  0  0  0  0  0  0
   17.1680    3.2360    5.7340 C   0  0  0  0  0  0  0  0  0  0  0  0
   17.8960    4.9870    6.6710 H   0  0  0  0  0  0  0  0  0  0  0  0
   15.7960    3.5210    5.2910 C   0  0  0  0  0  2  0  0  0  0  0  0
   17.7520    2.0220    5.5040 C   0  0  0  0  0  0  0  0  0  0  0  0
   14.9490    2.3280    5.0800 C   0  0  2  0  0  0  0  0  0  0  0  0
   13.6520    2.2420    5.8700 C   0  0  0  0  0  1  0  0  0  0  0  0
   15.5660    1.0670    4.7170 C   0  0  1  0  0  3  0  0  0  0  0  0
   14.9110    1.8490    3.6410 C   0  0  0  0  0  0  0  0  0  0  0  0
   17.0390    0.9130    4.8410 C   0  0  0  0  0  2  0  0  0  0  0  0
   15.7080    2.4860    2.7060 F   0  0  0  0  0  0  0  0  0  0  0  0
   13.6720    1.5200    3.1820 F   0  0  0  0  0  0  0  0  0  0  0  0
   24.3470   -2.6260    7.5460 C   0  0  1  0  0  3  0  0  0  0  0  0
   24.5790   -3.8640    6.7450 C   0  0  1  0  0  3  0  0  0  0  0  0
   25.0060   -5.0140    7.6960 C   0  0  0  0  0  2  0  0  0  0  0  0
   25.5180   -6.1060    6.7810 C   0  0  0  0  0  2  0  0  0  0  0  0
   24.3860   -6.9140    6.1970 C   0  0  0  0  0  2  0  0  0  0  0  0
   23.0600   -6.2310    6.3270 C   0  0  0  0  0  2  0  0  0  0  0  0
   23.2560   -4.5040    5.8200 S   0  0  0  0  0  0  0  0  0  0  0  0
   21.9690   -3.7890    5.8960 O   0  0  0  0  0  0  0  0  0  0  0  0
   23.6070   -4.6420    4.3400 O   0  0  0  0  0  0  0  0  0  0  0  0
   25.4510   -2.2110    8.4370 C   0  0  0  0  0  0  0  0  0  0  0  0
   26.5900   -1.6230    7.8530 C   0  0  0  0  0  3  0  0  0  0  0  0
   27.6490   -1.2030    8.6020 C   0  0  0  0  0  3  0  0  0  0  0  0
   27.6500   -1.3390    9.9600 C   0  0  0  0  0  3  0  0  0  0  0  0
   26.5630   -1.9050   10.5610 C   0  0  0  0  0  3  0  0  0  0  0  0
   25.4940   -2.3260    9.7880 C   0  0  0  0  0  3  0  0  0  0  0  0
  1  7  1  0  0  0  0
  1  6  2  0  0  0  0
  2  3  1  0  0  0  0
  2  1  1  0  0  0  0
  3  5  1  0  0  0  0
  4  3  1  0  0  0  0
  5  6  1  0  0  0  0
  5 26  1  0  0  0  0
  7 10  1  0  0  0  0
  8  7  1  0  0  0  0
  9  8  2  0  0  0  0
 11  8  1  1  0  0  0
 11 12  1  0  0  0  0
 12 14  1  0  0  0  0
 13 12  1  0  0  0  0
 13 16  1  0  0  0  0
 15 13  1  0  0  0  0
 17 15  1  0  0  0  0
 18 15  2  0  0  0  0
 18 11  1  0  0  0  0
 19 17  1  0  0  0  0
 19 20  1  1  0  0  0
 21 23  1  6  0  0  0
 21 19  1  0  0  0  0
 22 21  1  0  0  0  0
 22 19  1  0  0  0  0
 23 18  1  0  0  0  0
 24 22  1  0  0  0  0
 25 22  1  0  0  0  0
 26 35  1  6  0  0  0
 27 26  1  1  0  0  0
 27 28  1  0  0  0  0
 29 28  1  0  0  0  0
 30 31  1  0  0  0  0
 30 29  1  0  0  0  0
 32 33  2  0  0  0  0
 32 31  1  0  0  0  0
 32 27  1  0  0  0  0
 34 32  2  0  0  0  0
 35 40  1  0  0  0  0
 36 35  2  0  0  0  0
 36 37  1  0  0  0  0
 37 38  2  0  0  0  0
 38 39  1  0  0  0  0
 40 39  2  0  0  0  0
M  END
>  <minimizedAffinity>
-10.2994967

>  <minimizedRMSD>
0.829542994

$$$$
