
 OpenBabel04082420103D

 39 40  0  0  1  0  0  0  0  0999 V2000
   50.3650   18.5930   -7.0240 C   0  0  2  0  0  3  0  0  0  0  0  0
   50.1330   19.6690   -7.9480 N   0  0  0  0  0  0  0  0  0  0  0  0
   50.2170   19.4950   -9.3430 C   0  0  0  0  0  0  0  0  0  0  0  0
   50.3570   18.3390   -9.8030 O   0  0  0  0  0  0  0  0  0  0  0  0
   49.8980   20.5910   -7.5800 H   0  0  0  0  0  0  0  0  0  0  0  0
   50.1520   20.5470  -10.2510 O   0  0  0  0  0  0  0  0  0  0  0  0
   50.4360   20.2900  -11.6060 C   0  0  0  0  0  2  0  0  0  0  0  0
   50.2260   21.4550  -12.4740 C   0  0  0  0  0  0  0  0  0  0  0  0
   50.3200   21.3310  -13.8270 C   0  0  0  0  0  3  0  0  0  0  0  0
   50.1260   22.4160  -14.6420 C   0  0  0  0  0  3  0  0  0  0  0  0
   49.8340   23.6330  -14.0710 C   0  0  0  0  0  3  0  0  0  0  0  0
   49.7370   23.7670  -12.6860 C   0  0  0  0  0  3  0  0  0  0  0  0
   49.9370   22.6650  -11.9090 C   0  0  0  0  0  3  0  0  0  0  0  0
   51.8280   18.7730   -6.0090 P   0  0  1  0  0  0  0  0  0  0  0  0
   52.9550   18.0390   -6.7420 O   0  0  0  0  0  0  0  0  0  0  0  0
   52.1600   20.4450   -5.9090 O   0  0  0  0  0  1  0  0  0  0  0  0
   51.6590   18.1290   -4.4220 N   0  0  0  0  0  0  0  0  0  0  0  0
   50.8160   17.6840   -4.0600 H   0  0  0  0  0  0  0  0  0  0  0  0
   52.9220   18.3160   -3.6520 C   0  0  1  0  0  3  0  0  0  0  0  0
   52.5880   19.0530   -2.4060 C   0  0  0  0  0  2  0  0  0  0  0  0
   53.4690   18.8900   -1.2400 C   0  0  0  0  0  3  0  0  0  0  0  0
   54.3140   20.2060   -1.1100 C   0  0  0  0  0  1  0  0  0  0  0  0
   52.6340   18.9610    0.0620 C   0  0  0  0  0  1  0  0  0  0  0  0
   53.5770   17.0430   -3.4530 C   0  0  0  0  0  0  0  0  0  0  0  0
   54.8560   17.0260   -3.3270 O   0  0  0  0  0  0  0  0  0  0  0  0
   52.9810   15.7490   -3.3590 N   0  0  0  0  0  0  0  0  0  0  0  0
   52.1680   15.6180   -2.7570 H   0  0  0  0  0  0  0  0  0  0  0  0
   53.5040   14.6150   -4.0960 C   0  0  1  0  0  3  0  0  0  0  0  0
   53.4610   13.4130   -3.0990 C   0  0  0  0  0  1  0  0  0  0  0  0
   52.5850   14.2370   -5.1650 C   0  0  0  0  0  0  0  0  0  0  0  0
   51.6500   15.0190   -5.5250 O   0  0  0  0  0  1  0  0  0  0  0  0
   52.6800   13.0400   -5.8240 O   0  0  0  0  0  0  0  0  0  0  0  0
   50.2190   17.2030   -7.6050 C   0  0  0  0  0  2  0  0  0  0  0  0
   48.8350   16.6760   -7.5160 C   0  0  0  0  0  0  0  0  0  0  0  0
   48.0560   16.8510   -6.3880 C   0  0  0  0  0  3  0  0  0  0  0  0
   46.8000   16.3390   -6.3500 C   0  0  0  0  0  3  0  0  0  0  0  0
   46.2900   15.6450   -7.4220 C   0  0  0  0  0  3  0  0  0  0  0  0
   47.0230   15.4410   -8.5670 C   0  0  0  0  0  3  0  0  0  0  0  0
   48.3180   15.9820   -8.5790 C   0  0  0  0  0  3  0  0  0  0  0  0
  1 33  1  6  0  0  0
  1 14  1  0  0  0  0
  2  5  1  0  0  0  0
  2  1  1  0  0  0  0
  3  2  1  0  0  0  0
  4  3  2  0  0  0  0
  6  3  1  0  0  0  0
  7  6  1  0  0  0  0
  8 13  1  0  0  0  0
  8  7  1  0  0  0  0
  9  8  2  0  0  0  0
 10 11  2  0  0  0  0
 10  9  1  0  0  0  0
 11 12  1  0  0  0  0
 12 13  2  0  0  0  0
 14 15  2  6  0  0  0
 14 16  1  0  0  0  0
 14 17  1  0  0  0  0
 17 18  1  0  0  0  0
 17 19  1  0  0  0  0
 19 24  1  0  0  0  0
 19 20  1  1  0  0  0
 20 21  1  0  0  0  0
 21 22  1  0  0  0  0
 21 23  1  0  0  0  0
 24 26  1  0  0  0  0
 24 25  2  0  0  0  0
 26 27  1  0  0  0  0
 28 26  1  0  0  0  0
 28 29  1  1  0  0  0
 30 28  1  0  0  0  0
 31 30  1  0  0  0  0
 32 30  2  0  0  0  0
 33 34  1  0  0  0  0
 34 35  1  0  0  0  0
 35 36  2  0  0  0  0
 37 36  1  0  0  0  0
 38 37  2  0  0  0  0
 39 38  1  0  0  0  0
 39 34  2  0  0  0  0
M  END
>  <minimizedAffinity>
-9.21435738

>  <minimizedRMSD>
1.72940648

$$$$
