
 OpenBabel04082420103D

 32 35  0  0  1  0  0  0  0  0999 V2000
   59.6230   15.5260   49.1310 C   0  0  0  0  0  0  0  0  0  0  0  0
   59.5950   15.4110   50.4940 C   0  0  0  0  0  3  0  0  0  0  0  0
   58.6740   14.5290   51.0870 C   0  0  0  0  0  3  0  0  0  0  0  0
   58.7360   14.7580   48.3960 C   0  0  0  0  0  3  0  0  0  0  0  0
   57.8280   13.8880   49.0030 C   0  0  2  0  0  3  0  0  0  0  0  0
   56.8740   13.0780   48.5470 N   0  0  0  0  0  0  0  0  0  0  0  0
   56.6440   12.9390   47.5640 H   0  0  0  0  0  0  0  0  0  0  0  0
   56.2590   12.4730   49.5790 N   0  0  0  0  0  0  0  0  0  0  0  0
   55.4940   11.8050   49.4880 H   0  0  0  0  0  0  0  0  0  0  0  0
   56.7850   12.8680   50.7290 C   0  0  0  0  0  0  0  0  0  0  0  0
   57.8120   13.7870   50.3670 C   0  0  0  0  0  0  0  0  0  0  0  0
   60.7060   16.7150   48.3060 S   0  0  0  0  0  0  0  0  0  0  0  0
   62.3630   16.6360   48.9330 C   0  0  0  0  0  0  0  0  0  0  0  0
   63.0440   17.8400   49.0980 C   0  0  0  0  0  0  0  0  0  0  0  0
   64.3430   17.7730   49.5590 C   0  0  0  0  0  3  0  0  0  0  0  0
   64.9760   16.5650   49.8580 C   0  0  0  0  0  3  0  0  0  0  0  0
   64.2900   15.3640   49.6920 C   0  0  0  0  0  3  0  0  0  0  0  0
   62.9950   15.4500   49.2310 C   0  0  0  0  0  3  0  0  0  0  0  0
   62.4490   19.1340   48.7780 C   0  0  0  0  0  0  0  0  0  0  0  0
   61.2640   19.3430   49.1040 O   0  0  0  0  0  0  0  0  0  0  0  0
   63.1650   20.1600   48.1040 N   0  0  0  0  0  0  0  0  0  0  0  0
   62.6300   21.4750   47.7940 C   0  0  0  0  0  1  0  0  0  0  0  0
   64.1230   19.9590   47.8190 H   0  0  0  0  0  0  0  0  0  0  0  0
   56.4310   12.6200   52.1080 C   0  0  0  0  0  2  0  0  0  0  0  0
   56.8780   13.0580   53.2240 C   0  0  0  0  0  2  0  0  0  0  0  0
   56.9610   12.4210   54.5090 C   0  0  2  0  0  3  0  0  0  0  0  0
   57.6930   12.8130   55.5480 N   0  0  0  0  0  0  0  0  0  0  0  0
   57.7700   12.2060   56.7400 C   0  0  0  0  0  3  0  0  0  0  0  0
   58.2500   13.6570   55.4260 H   0  0  0  0  0  0  0  0  0  0  0  0
   57.0420   11.0550   56.9860 C   0  0  0  0  0  3  0  0  0  0  0  0
   56.2600   10.5860   55.9620 C   0  0  0  0  0  3  0  0  0  0  0  0
   56.2160   11.2440   54.7580 C   0  0  0  0  0  3  0  0  0  0  0  0
  1  2  1  0  0  0  0
  2  3  2  0  0  0  0
  4  1  2  0  0  0  0
  5  4  1  1  0  0  0
  5 11  1  0  0  0  0
  6  5  1  0  0  0  0
  6  8  1  0  0  0  0
  7  6  1  0  0  0  0
  8 10  1  0  0  0  0
  9  8  1  0  0  0  0
 10 24  1  0  0  0  0
 11 10  2  0  0  0  0
 11  3  1  0  0  0  0
 12 13  1  0  0  0  0
 12  1  1  0  0  0  0
 13 14  2  0  0  0  0
 13 18  1  0  0  0  0
 14 15  1  0  0  0  0
 15 16  2  0  0  0  0
 17 16  1  0  0  0  0
 18 17  2  0  0  0  0
 19 14  1  0  0  0  0
 19 20  2  0  0  0  0
 21 19  1  0  0  0  0
 22 21  1  0  0  0  0
 23 21  1  0  0  0  0
 24 25  1  0  0  0  0
 26 25  1  6  0  0  0
 26 32  1  0  0  0  0
 26 27  1  0  0  0  0
 27 28  1  0  0  0  0
 28 30  2  0  0  0  0
 29 27  1  0  0  0  0
 31 30  1  0  0  0  0
 32 31  2  0  0  0  0
M  END
>  <minimizedAffinity>
-9.36020565

>  <minimizedRMSD>
0.917289615

$$$$
