
 OpenBabel04082420063D

 43 47  0  0  1  0  0  0  0  0999 V2000
   40.0770  -20.5820   28.9890 C   0  0  2  0  0  3  0  0  0  0  0  0
   41.5610  -20.5640   29.0510 C   0  0  1  0  0  3  0  0  0  0  0  0
   42.4140  -20.1150   28.0920 N   0  0  0  0  0  0  0  0  0  0  0  0
   43.6670  -20.2600   28.5070 C   0  0  0  0  0  0  0  0  0  0  0  0
   42.1340  -19.7270   27.1920 H   0  0  0  0  0  0  0  0  0  0  0  0
   43.6450  -20.8130   29.7590 C   0  0  0  0  0  0  0  0  0  0  0  0
   45.0750  -19.8050   27.5690 Cl  0  0  0  0  0  0  0  0  0  0  0  0
   42.3450  -20.9850   30.0620 N   0  0  0  0  0  0  0  0  0  0  0  0
   42.0010  -21.3810   30.9380 H   0  0  0  0  0  0  0  0  0  0  0  0
   44.8340  -21.1190   30.5340 C   0  0  0  0  0  0  0  0  0  0  0  0
   44.7230  -21.8820   31.6760 C   0  0  0  0  0  3  0  0  0  0  0  0
   45.8510  -22.1800   32.4210 C   0  0  0  0  0  3  0  0  0  0  0  0
   47.1010  -21.7360   32.0540 C   0  0  0  0  0  0  0  0  0  0  0  0
   47.2190  -20.9660   30.9030 C   0  0  2  0  0  3  0  0  0  0  0  0
   48.3510  -21.8950   32.6170 C   0  0  0  0  0  0  0  0  0  0  0  0
   46.0840  -20.6730   30.1660 C   0  0  0  0  0  3  0  0  0  0  0  0
   48.5300  -20.6810   30.7970 N   0  0  0  0  0  0  0  0  0  0  0  0
   49.2040  -21.2330   31.8160 N   0  0  0  0  0  0  0  0  0  0  0  0
   48.9490  -20.1260   30.0510 H   0  0  0  0  0  0  0  0  0  0  0  0
   50.2110  -21.1610   31.9620 H   0  0  0  0  0  0  0  0  0  0  0  0
   48.6710  -22.6130   33.8000 N   0  0  0  0  0  1  0  0  0  0  0  0
   39.5960  -21.8190   28.2320 C   0  0  0  0  0  2  0  0  0  0  0  0
   40.3090  -23.0300   28.6550 C   0  0  0  0  0  0  0  0  0  0  0  0
   40.0650  -23.5380   29.9170 C   0  0  0  0  0  3  0  0  0  0  0  0
   40.6950  -24.6610   30.3720 C   0  0  0  0  0  3  0  0  0  0  0  0
   41.6080  -25.3260   29.5660 C   0  0  0  0  0  3  0  0  0  0  0  0
   41.8410  -24.8080   28.3150 C   0  0  0  0  0  3  0  0  0  0  0  0
   41.2120  -23.6750   27.8430 C   0  0  0  0  0  3  0  0  0  0  0  0
   39.5540  -19.4010   28.3180 N   0  0  0  0  0  0  0  0  0  0  0  0
   38.8190  -18.3930   28.9680 C   0  0  0  0  0  0  0  0  0  0  0  0
   39.2860  -17.9290   30.0430 O   0  0  0  0  0  0  0  0  0  0  0  0
   39.7320  -19.2970   27.3190 H   0  0  0  0  0  0  0  0  0  0  0  0
   37.5180  -17.8620   28.4330 C   0  0  1  0  0  3  0  0  0  0  0  0
   36.8170  -17.0850   29.5020 C   0  0  0  0  0  2  0  0  0  0  0  0
   36.0840  -15.8680   28.9180 C   0  0  0  0  0  2  0  0  0  0  0  0
   37.1330  -14.9350   28.4200 C   0  0  1  0  0  3  0  0  0  0  0  0
   38.1040  -15.6110   27.4830 C   0  0  0  0  0  2  0  0  0  0  0  0
   37.7300  -17.0380   27.1940 C   0  0  0  0  0  2  0  0  0  0  0  0
   36.5930  -13.6730   27.8110 C   0  0  0  0  0  2  0  0  0  0  0  0
   37.6710  -12.7130   27.5230 N   0  0  0  0  0  4  0  0  0  0  0  0
   38.2300  -12.5180   28.3530 H   0  0  0  0  0  0  0  0  0  0  0  0
   38.3950  -13.1290   26.9380 H   0  0  0  0  0  0  0  0  0  0  0  0
   37.3040  -11.8560   27.1090 H   0  0  0  0  0  0  0  0  0  0  0  0
  1 22  1  6  0  0  0
  2  1  1  1  0  0  0
  2  8  1  0  0  0  0
  3  4  1  0  0  0  0
  3  2  1  0  0  0  0
  4  6  2  0  0  0  0
  5  3  1  0  0  0  0
  6  8  1  0  0  0  0
  6 10  1  0  0  0  0
  7  4  1  0  0  0  0
  8  9  1  0  0  0  0
 10 11  1  0  0  0  0
 11 12  2  0  0  0  0
 13 12  1  0  0  0  0
 13 15  2  0  0  0  0
 14 16  1  6  0  0  0
 14 13  1  0  0  0  0
 15 21  1  0  0  0  0
 16 10  2  0  0  0  0
 17 14  1  0  0  0  0
 17 18  1  0  0  0  0
 18 20  1  0  0  0  0
 18 15  1  0  0  0  0
 19 17  1  0  0  0  0
 22 23  1  0  0  0  0
 23 24  1  0  0  0  0
 24 25  2  0  0  0  0
 26 25  1  0  0  0  0
 27 26  2  0  0  0  0
 28 27  1  0  0  0  0
 28 23  2  0  0  0  0
 29 30  1  0  0  0  0
 29  1  1  0  0  0  0
 30 31  2  0  0  0  0
 32 29  1  0  0  0  0
 33 30  1  1  0  0  0
 33 34  1  0  0  0  0
 35 34  1  0  0  0  0
 36 39  1  6  0  0  0
 36 35  1  0  0  0  0
 37 36  1  0  0  0  0
 38 37  1  0  0  0  0
 38 33  1  0  0  0  0
 40 39  1  0  0  0  0
 40 41  1  0  0  0  0
 42 40  1  0  0  0  0
 43 40  1  0  0  0  0
M  END
>  <minimizedAffinity>
-9.33680058

>  <minimizedRMSD>
0.382712692

$$$$
