
 OpenBabel04082420013D

 16 17  0  0  0  0  0  0  0  0999 V2000
  -16.6990   43.9750   -5.2750 C   0  0  0  0  0  2  0  0  0  0  0  0
  -17.6790   44.1740   -4.3450 N   0  0  0  0  0  0  0  0  0  0  0  0
  -18.3860   43.4520   -4.2020 H   0  0  0  0  0  0  0  0  0  0  0  0
  -13.8470   43.3780   -6.5560 O   0  0  0  0  0  0  0  0  0  0  0  0
  -17.7320   45.2880   -3.6200 C   0  0  0  0  0  3  0  0  0  0  0  0
  -13.5020   46.0340   -6.6830 N   0  0  0  0  0  0  0  0  0  0  0  0
  -12.5130   45.9930   -6.9300 H   0  0  0  0  0  0  0  0  0  0  0  0
  -15.3600   44.6760   -8.0260 O   0  0  0  0  0  0  0  0  0  0  0  0
  -16.7910   46.2760   -3.7910 C   0  0  0  0  0  3  0  0  0  0  0  0
  -14.7910   47.0640   -4.9480 N   0  0  0  0  0  0  0  0  0  0  0  0
  -15.7550   44.9480   -5.4590 C   0  0  0  0  0  0  0  0  0  0  0  0
  -14.1730   47.2480   -6.2630 C   0  0  0  0  0  2  0  0  0  0  0  0
  -15.7770   46.1010   -4.7320 C   0  0  0  0  0  0  0  0  0  0  0  0
  -14.5450   44.6680   -6.7250 S   0  0  0  0  0  0  0  0  0  0  0  0
  -14.3520   47.9420   -3.9110 C   0  0  0  0  0  2  0  0  0  0  0  0
  -14.7170   49.3610   -3.9170 C   0  0  0  0  0  1  0  0  0  0  0  0
  1  2  1  0  0  0  0
  2  3  1  0  0  0  0
  2  5  1  0  0  0  0
  6 12  1  0  0  0  0
  7  6  1  0  0  0  0
  8 14  2  0  0  0  0
  9  5  2  0  0  0  0
 10 13  1  0  0  0  0
 10 15  1  0  0  0  0
 11  1  1  0  0  0  0
 11 13  2  0  0  0  0
 12 10  1  0  0  0  0
 13  9  1  0  0  0  0
 14  6  1  0  0  0  0
 14  4  2  0  0  0  0
 14 11  1  0  0  0  0
 16 15  1  0  0  0  0
M  END
>  <minimizedAffinity>
-5.87708664

>  <minimizedRMSD>
0.721331656

$$$$
