
 OpenBabel04082419573D

 31 33  0  0  1  0  0  0  0  0999 V2000
   12.7360   53.4720   89.2610 C   0  0  0  0  0  0  0  0  0  0  0  0
   12.9120   52.3600   89.7790 O   0  0  0  0  0  0  0  0  0  0  0  0
   11.9490   53.6250   88.1030 N   0  0  0  0  0  0  0  0  0  0  0  0
   11.6610   54.5700   87.8460 H   0  0  0  0  0  0  0  0  0  0  0  0
   13.3640   54.6770   89.8640 C   0  0  1  0  0  3  0  0  0  0  0  0
   13.4830   54.6390   91.2780 N   0  0  0  0  0  0  0  0  0  0  0  0
   12.4830   54.1910   92.2090 C   0  0  0  0  0  0  0  0  0  0  0  0
   14.7580   55.1300   91.6950 C   0  0  0  0  0  2  0  0  0  0  0  0
   11.3560   53.7550   91.8580 O   0  0  0  0  0  0  0  0  0  0  0  0
   15.4340   55.6400   90.4420 C   0  0  1  0  0  3  0  0  0  0  0  0
   14.7420   54.8990   89.3230 C   0  0  0  0  0  2  0  0  0  0  0  0
   12.7660   54.2320   93.6560 C   0  0  0  0  0  2  0  0  0  0  0  0
   13.1540   52.9070   94.2240 C   0  0  0  0  0  0  0  0  0  0  0  0
   14.0020   52.0510   93.3510 C   0  0  0  0  0  1  0  0  0  0  0  0
   13.8320   53.0480   95.5820 C   0  0  0  0  0  1  0  0  0  0  0  0
   11.8490   52.1480   94.5020 C   0  0  0  0  0  1  0  0  0  0  0  0
   15.2220   57.0090   90.2510 O   0  0  0  0  0  0  0  0  0  0  0  0
   15.6470   57.3290   89.4640 H   0  0  0  0  0  0  0  0  0  0  0  0
   11.5200   52.5380   87.2530 C   0  0  0  0  0  2  0  0  0  0  0  0
   12.4340   52.2570   86.1220 C   0  0  0  0  0  0  0  0  0  0  0  0
   12.4170   51.0820   85.4100 C   0  0  0  0  0  3  0  0  0  0  0  0
   13.2990   50.8650   84.3450 C   0  0  0  0  0  3  0  0  0  0  0  0
   14.2160   51.8180   83.9700 C   0  0  0  0  0  0  0  0  0  0  0  0
   14.2440   53.0000   84.6750 C   0  0  0  0  0  3  0  0  0  0  0  0
   13.3740   53.2120   85.7240 C   0  0  0  0  0  3  0  0  0  0  0  0
   15.1390   51.5680   82.8470 C   0  0  0  0  0  0  0  0  0  0  0  0
   16.2850   52.1510   82.6110 O   0  0  0  0  0  0  0  0  0  0  0  0
   16.8150   51.6520   81.5050 C   0  0  0  0  0  2  0  0  0  0  0  0
   15.9920   50.7070   80.9930 N   0  0  0  0  0  0  0  0  0  0  0  0
   14.9500   50.6580   81.8330 C   0  0  0  0  0  3  0  0  0  0  0  0
   16.1360   50.1500   80.1500 H   0  0  0  0  0  0  0  0  0  0  0  0
  1  2  2  0  0  0  0
  3  1  1  0  0  0  0
  4  3  1  0  0  0  0
  5  1  1  6  0  0  0
  5  6  1  0  0  0  0
  6  8  1  0  0  0  0
  6  7  1  0  0  0  0
  7 12  1  0  0  0  0
  9  7  2  0  0  0  0
 10 17  1  6  0  0  0
 10  8  1  0  0  0  0
 11  5  1  0  0  0  0
 11 10  1  0  0  0  0
 12 13  1  0  0  0  0
 13 16  1  0  0  0  0
 13 15  1  0  0  0  0
 14 13  1  0  0  0  0
 18 17  1  0  0  0  0
 19  3  1  0  0  0  0
 20 19  1  0  0  0  0
 21 20  2  0  0  0  0
 22 21  1  0  0  0  0
 23 22  2  0  0  0  0
 23 24  1  0  0  0  0
 24 25  2  0  0  0  0
 25 20  1  0  0  0  0
 26 23  1  0  0  0  0
 27 26  1  0  0  0  0
 28 27  1  0  0  0  0
 29 28  1  0  0  0  0
 29 30  1  0  0  0  0
 30 26  2  0  0  0  0
 31 29  1  0  0  0  0
M  END
>  <minimizedAffinity>
-6.77470779

>  <minimizedRMSD>
0.616281271

$$$$
