
 OpenBabel04082420163D

 46 48  0  0  1  0  0  0  0  0999 V2000
   11.7370   53.6110   91.2070 C   0  0  0  0  0  0  0  0  0  0  0  0
   10.5940   53.2390   90.8430 O   0  0  0  0  0  0  0  0  0  0  0  0
   12.5140   54.4250   90.3770 N   0  0  0  0  0  0  0  0  0  0  0  0
   13.4220   55.4950   90.8750 C   0  0  0  0  0  2  0  0  0  0  0  0
   14.6660   55.2070   90.0910 C   0  0  1  0  0  3  0  0  0  0  0  0
   14.1990   54.5290   88.8150 C   0  0  0  0  0  2  0  0  0  0  0  0
   12.6760   54.5750   88.9610 C   0  0  1  0  0  3  0  0  0  0  0  0
   12.1910   53.1580   92.5250 C   0  0  1  0  0  3  0  0  0  0  0  0
   11.0640   53.1560   93.4830 N   0  0  0  0  0  0  0  0  0  0  0  0
   10.6560   54.3130   94.1700 C   0  0  0  0  0  0  0  0  0  0  0  0
   11.3350   55.3710   93.8840 O   0  0  0  0  0  0  0  0  0  0  0  0
   10.5650   52.2820   93.6510 H   0  0  0  0  0  0  0  0  0  0  0  0
    9.5400   54.3770   95.1580 C   0  0  1  0  0  3  0  0  0  0  0  0
    9.9000   55.1710   96.2980 N   0  0  0  0  0  0  0  0  0  0  0  0
   10.7180   54.7130   97.3720 C   0  0  0  0  0  0  0  0  0  0  0  0
   11.0430   55.6450   98.5130 C   0  0  0  0  0  1  0  0  0  0  0  0
   11.1450   53.5310   97.3320 O   0  0  0  0  0  0  0  0  0  0  0  0
    9.5480   56.1270   96.3430 H   0  0  0  0  0  0  0  0  0  0  0  0
    8.2480   54.8060   94.4970 C   0  0  0  0  0  0  0  0  0  0  0  0
    8.0360   56.2760   94.7530 C   0  0  0  0  0  1  0  0  0  0  0  0
    7.0590   53.9820   94.9470 C   0  0  0  0  0  1  0  0  0  0  0  0
    8.4050   54.6100   93.0060 C   0  0  0  0  0  1  0  0  0  0  0  0
   12.7050   51.7540   92.5990 C   0  0  0  0  0  0  0  0  0  0  0  0
   12.3140   51.1050   91.2600 C   0  0  0  0  0  1  0  0  0  0  0  0
   12.1360   50.9290   93.6980 C   0  0  0  0  0  1  0  0  0  0  0  0
   14.2310   51.7260   92.6180 C   0  0  0  0  0  1  0  0  0  0  0  0
   12.0500   53.5980   88.0740 C   0  0  0  0  0  0  0  0  0  0  0  0
   12.3580   52.3850   88.1720 O   0  0  0  0  0  0  0  0  0  0  0  0
   11.0950   53.9310   87.0880 N   0  0  0  0  0  0  0  0  0  0  0  0
   10.7120   54.8760   87.1260 H   0  0  0  0  0  0  0  0  0  0  0  0
   10.6070   53.0790   86.0330 C   0  0  0  0  0  2  0  0  0  0  0  0
   11.6420   52.8450   84.9980 C   0  0  0  0  0  0  0  0  0  0  0  0
   11.5060   51.7790   84.1450 C   0  0  0  0  0  3  0  0  0  0  0  0
   12.4520   51.5520   83.1720 C   0  0  0  0  0  3  0  0  0  0  0  0
   13.5750   52.3530   82.9850 C   0  0  0  0  0  0  0  0  0  0  0  0
   13.6910   53.4100   83.8460 C   0  0  0  0  0  3  0  0  0  0  0  0
   12.7260   53.6550   84.8520 C   0  0  0  0  0  3  0  0  0  0  0  0
   14.4910   52.0620   81.9160 C   0  0  0  0  0  0  0  0  0  0  0  0
   16.3150   52.1950   82.1640 S   0  0  0  0  0  0  0  0  0  0  0  0
   16.6770   51.6750   80.3950 C   0  0  0  0  0  2  0  0  0  0  0  0
   15.5560   51.5190   79.9910 N   0  0  0  0  0  0  0  0  0  0  0  0
   14.4230   51.6740   80.6300 C   0  0  0  0  0  0  0  0  0  0  0  0
   15.4760   51.2270   79.0170 H   0  0  0  0  0  0  0  0  0  0  0  0
   13.1020   51.4320   79.9290 C   0  0  0  0  0  1  0  0  0  0  0  0
   15.2040   56.4550   89.6760 O   0  0  0  0  0  0  0  0  0  0  0  0
   15.9930   56.2730   89.1800 H   0  0  0  0  0  0  0  0  0  0  0  0
  2  1  2  0  0  0  0
  3  4  1  0  0  0  0
  3  1  1  0  0  0  0
  5 45  1  6  0  0  0
  5  4  1  0  0  0  0
  6  7  1  0  0  0  0
  6  5  1  0  0  0  0
  7 27  1  6  0  0  0
  7  3  1  0  0  0  0
  8  1  1  6  0  0  0
  8 23  1  0  0  0  0
  8  9  1  0  0  0  0
  9 12  1  0  0  0  0
  9 10  1  0  0  0  0
 11 10  2  0  0  0  0
 13 10  1  6  0  0  0
 13 14  1  0  0  0  0
 14 18  1  0  0  0  0
 14 15  1  0  0  0  0
 15 16  1  0  0  0  0
 17 15  2  0  0  0  0
 19 20  1  0  0  0  0
 19 21  1  0  0  0  0
 19 13  1  0  0  0  0
 22 19  1  0  0  0  0
 23 26  1  0  0  0  0
 23 25  1  0  0  0  0
 24 23  1  0  0  0  0
 27 28  2  0  0  0  0
 29 30  1  0  0  0  0
 29 27  1  0  0  0  0
 31 29  1  0  0  0  0
 32 31  1  0  0  0  0
 33 32  2  0  0  0  0
 34 33  1  0  0  0  0
 35 34  2  0  0  0  0
 35 36  1  0  0  0  0
 36 37  2  0  0  0  0
 37 32  1  0  0  0  0
 38 39  1  0  0  0  0
 38 35  1  0  0  0  0
 40 39  1  0  0  0  0
 41 40  1  0  0  0  0
 41 42  1  0  0  0  0
 42 38  2  0  0  0  0
 43 41  1  0  0  0  0
 44 42  1  0  0  0  0
 46 45  1  0  0  0  0
M  END
>  <minimizedAffinity>
-6.3940239

>  <minimizedRMSD>
0.983582973

$$$$
