
 OpenBabel04082420183D

 32 34  0  0  1  0  0  0  0  0999 V2000
   92.3120   94.0550  -40.7240 C   0  0  0  0  0  3  0  0  0  0  0  0
   91.3330   93.0140  -45.3520 C   0  0  0  0  0  0  0  0  0  0  0  0
   91.0120   95.3580  -45.0560 C   0  0  0  0  0  0  0  0  0  0  0  0
   91.5470   92.9440  -44.0470 C   0  0  0  0  0  3  0  0  0  0  0  0
   91.0220   94.2970  -45.9770 C   0  0  0  0  0  3  0  0  0  0  0  0
   91.5470   93.9890  -43.0980 C   0  0  0  0  0  0  0  0  0  0  0  0
   91.2440   95.2320  -43.8630 C   0  0  0  0  0  0  0  0  0  0  0  0
   91.9720   94.0200  -41.7880 C   0  0  0  0  0  0  0  0  0  0  0  0
   91.2860   96.3380  -42.9360 O   0  0  0  0  0  0  0  0  0  0  0  0
   91.4670   96.2390  -42.0090 H   0  0  0  0  0  0  0  0  0  0  0  0
   91.8200   92.0710  -46.3600 C   0  0  0  0  0  0  0  0  0  0  0  0
   92.2260   91.2770  -47.2380 C   0  0  0  0  0  0  0  0  0  0  0  0
   92.7120   90.3500  -48.2950 C   0  0  0  0  0  2  0  0  0  0  0  0
   91.5770   89.7010  -48.8420 O   0  0  0  0  0  0  0  0  0  0  0  0
   90.6960   90.1040  -49.7810 C   0  0  0  0  0  0  0  0  0  0  0  0
   90.8670   91.2630  -50.4850 C   0  0  0  0  0  3  0  0  0  0  0  0
   90.0390   91.7790  -51.4860 C   0  0  0  0  0  3  0  0  0  0  0  0
   88.8680   90.8780  -51.7210 C   0  0  0  0  0  3  0  0  0  0  0  0
   88.7620   89.8530  -51.0650 C   0  0  0  0  0  3  0  0  0  0  0  0
   89.5510   89.2760  -50.0490 C   0  0  0  0  0  3  0  0  0  0  0  0
   90.6350   96.7070  -45.6490 C   0  0  0  0  0  2  0  0  0  0  0  0
   91.2370   97.8010  -44.8960 N   0  0  0  0  0  0  0  0  0  0  0  0
   90.3580   98.9470  -44.7870 C   0  0  0  0  0  2  0  0  0  0  0  0
   90.8790  100.2070  -45.3770 C   0  0  0  0  0  2  0  0  0  0  0  0
   92.1870  100.5980  -44.7450 C   0  0  2  0  0  3  0  0  0  0  0  0
   93.0200   99.3800  -44.5130 C   0  0  0  0  0  2  0  0  0  0  0  0
   92.5530   98.1460  -45.2750 C   0  0  0  0  0  2  0  0  0  0  0  0
   92.0810  101.4050  -43.5800 N   0  0  0  0  0  0  0  0  0  0  0  0
   91.5510  100.6500  -42.4730 C   0  0  0  0  0  2  0  0  0  0  0  0
   92.0190  101.1750  -41.1310 C   0  0  0  0  0  1  0  0  0  0  0  0
   93.3440  101.9740  -43.1350 C   0  0  0  0  0  2  0  0  0  0  0  0
   93.5110  103.4340  -43.3690 C   0  0  0  0  0  1  0  0  0  0  0  0
  2  4  1  0  0  0  0
  3  7  2  0  0  0  0
  4  6  2  0  0  0  0
  5  2  2  0  0  0  0
  5  3  1  0  0  0  0
  6  8  1  0  0  0  0
  7  6  1  0  0  0  0
  7  9  1  0  0  0  0
  8  1  3  0  0  0  0
  9 10  1  0  0  0  0
 11  2  1  0  0  0  0
 12 11  3  0  0  0  0
 13 12  1  0  0  0  0
 14 13  1  0  0  0  0
 15 14  1  0  0  0  0
 16 15  2  0  0  0  0
 17 16  1  0  0  0  0
 18 17  2  0  0  0  0
 18 19  1  0  0  0  0
 19 20  2  0  0  0  0
 20 15  1  0  0  0  0
 21  3  1  0  0  0  0
 21 22  1  0  0  0  0
 22 23  1  0  0  0  0
 24 23  1  0  0  0  0
 24 25  1  0  0  0  0
 25 26  1  0  0  0  0
 25 28  1  1  0  0  0
 27 22  1  0  0  0  0
 27 26  1  0  0  0  0
 28 31  1  0  0  0  0
 28 29  1  0  0  0  0
 29 30  1  0  0  0  0
 32 31  1  0  0  0  0
M  END
>  <minimizedAffinity>
-5.53433561

>  <minimizedRMSD>
0.568521619

$$$$
