
 OpenBabel04082420153D

 25 27  0  0  1  0  0  0  0  0999 V2000
   90.8920   97.8950  -44.7160 N   0  0  0  0  0  0  0  0  0  0  0  0
   92.1600   98.5690  -44.9350 C   0  0  0  0  0  2  0  0  0  0  0  0
   91.2110  100.8540  -44.8950 C   0  0  2  0  0  3  0  0  0  0  0  0
   90.2590  100.0740  -43.9800 C   0  0  0  0  0  2  0  0  0  0  0  0
   89.8040   98.8430  -44.7690 C   0  0  0  0  0  2  0  0  0  0  0  0
   91.9340   99.8650  -45.7270 C   0  0  0  0  0  2  0  0  0  0  0  0
   90.6810   96.7750  -45.6020 C   0  0  0  0  0  2  0  0  0  0  0  0
   90.8710   95.4710  -44.9000 C   0  0  0  0  0  0  0  0  0  0  0  0
   90.9280   94.3070  -45.6160 C   0  0  0  0  0  3  0  0  0  0  0  0
   91.1050   93.1030  -44.9640 C   0  0  0  0  0  0  0  0  0  0  0  0
   91.2220   93.0960  -43.5850 C   0  0  0  0  0  3  0  0  0  0  0  0
   91.1850   91.5890  -45.8310 Cl  0  0  0  0  0  0  0  0  0  0  0  0
   91.1630   94.2710  -42.8700 C   0  0  0  0  0  0  0  0  0  0  0  0
   90.9870   95.4580  -43.5380 C   0  0  0  0  0  0  0  0  0  0  0  0
   91.3240   94.2800  -40.9560 Br  0  0  0  0  0  0  0  0  0  0  0  0
   90.9330   96.6270  -42.7730 O   0  0  0  0  0  0  0  0  0  0  0  0
   91.0140   96.6180  -41.8270 H   0  0  0  0  0  0  0  0  0  0  0  0
   91.9920  101.8160  -44.2200 N   0  0  2  0  0  0  0  0  0  0  0  0
   92.5900  101.4060  -42.9830 C   0  0  0  0  0  2  0  0  0  0  0  0
   93.7420  102.3900  -42.7200 C   0  0  0  0  0  2  0  0  0  0  0  0
   93.2220  103.8040  -42.5860 C   0  0  2  0  0  3  0  0  0  0  0  0
   91.7250  103.7440  -42.7050 C   0  0  0  0  0  2  0  0  0  0  0  0
   91.2770  103.0570  -43.9720 C   0  0  0  0  0  2  0  0  0  0  0  0
   93.6900  104.6510  -43.5730 O   0  0  0  0  0  0  0  0  0  0  0  0
   94.6370  104.6900  -43.4980 H   0  0  0  0  0  0  0  0  0  0  0  0
  2  1  1  0  0  0  0
  3  6  1  1  0  0  0
  3 18  1  0  0  0  0
  3  4  1  0  0  0  0
  5  1  1  0  0  0  0
  5  4  1  0  0  0  0
  6  2  1  0  0  0  0
  7  8  1  0  0  0  0
  7  1  1  0  0  0  0
  8 14  1  0  0  0  0
  9 10  1  0  0  0  0
  9  8  2  0  0  0  0
 10 11  2  0  0  0  0
 11 13  1  0  0  0  0
 12 10  1  0  0  0  0
 13 15  1  0  0  0  0
 14 13  2  0  0  0  0
 14 16  1  0  0  0  0
 16 17  1  0  0  0  0
 18 23  1  1  0  0  0
 18 19  1  0  0  0  0
 19 20  1  0  0  0  0
 20 21  1  0  0  0  0
 21 24  1  6  0  0  0
 22 21  1  0  0  0  0
 23 22  1  0  0  0  0
 24 25  1  0  0  0  0
M  END
>  <minimizedAffinity>
-4.5873456

>  <minimizedRMSD>
0.512075245

$$$$
