
 OpenBabel04082420013D

 14 15  0  0  1  0  0  0  0  0999 V2000
    4.3250   11.5440   43.5550 C   0  0  2  0  0  3  0  0  0  0  0  0
    4.1400   12.9970   41.6910 C   0  0  1  0  0  3  0  0  0  0  0  0
    3.3110   13.7920   42.3910 N   0  0  0  0  0  0  0  0  0  0  0  0
    2.9280   14.6340   41.9620 H   0  0  0  0  0  0  0  0  0  0  0  0
    2.9830   13.4720   43.6740 C   0  0  0  0  0  0  0  0  0  0  0  0
    4.6230   11.8950   42.2920 N   0  0  0  0  0  0  0  0  0  0  0  0
    5.2520   11.2940   41.7610 H   0  0  0  0  0  0  0  0  0  0  0  0
    3.4780   12.3430   44.2930 C   0  0  0  0  0  0  0  0  0  0  0  0
    4.8420   10.3780   44.1820 N   0  0  0  0  0  1  0  0  0  0  0  0
    3.0990   12.0270   45.6880 C   0  0  0  0  0  1  0  0  0  0  0  0
    1.9020   14.5050   44.5940 Cl  0  0  0  0  0  0  0  0  0  0  0  0
    4.5100   13.3380   40.2770 C   0  0  0  0  0  3  0  0  0  0  0  0
    4.7060   14.7410   39.8770 C   0  0  0  0  0  2  0  0  0  0  0  0
    3.3960   14.1090   39.5460 C   0  0  0  0  0  2  0  0  0  0  0  0
  1  9  1  1  0  0  0
  1  8  1  0  0  0  0
  2 12  1  6  0  0  0
  2  6  1  0  0  0  0
  2  3  1  0  0  0  0
  3  5  1  0  0  0  0
  4  3  1  0  0  0  0
  5  8  2  0  0  0  0
  5 11  1  0  0  0  0
  6  1  1  0  0  0  0
  7  6  1  0  0  0  0
  8 10  1  0  0  0  0
 13 12  1  0  0  0  0
 14 13  1  0  0  0  0
 14 12  1  0  0  0  0
M  END
>  <minimizedAffinity>
-4.81868505

>  <minimizedRMSD>
0.443762451

$$$$
