
 OpenBabel04082419563D

 36 39  0  0  1  0  0  0  0  0999 V2000
    9.0830   38.3680   60.5760 C   0  0  1  0  0  3  0  0  0  0  0  0
    7.5800   37.1380   61.9990 C   0  0  0  0  0  0  0  0  0  0  0  0
    6.9210   36.6270   60.9530 N   0  0  0  0  0  0  0  0  0  0  0  0
    6.1310   35.9930   61.0760 H   0  0  0  0  0  0  0  0  0  0  0  0
    7.0620   36.6950   63.6070 Cl  0  0  0  0  0  0  0  0  0  0  0  0
    7.3540   36.9970   59.7130 C   0  0  1  0  0  3  0  0  0  0  0  0
    8.4020   37.8410   59.5430 N   0  0  0  0  0  0  0  0  0  0  0  0
    8.6850   38.0850   58.5950 H   0  0  0  0  0  0  0  0  0  0  0  0
    8.6450   37.9950   61.8450 C   0  0  0  0  0  0  0  0  0  0  0  0
    9.3680   38.5540   63.0240 C   0  0  0  0  0  1  0  0  0  0  0  0
    6.6430   36.4440   58.6630 O   0  0  0  0  0  0  0  0  0  0  0  0
    5.9990   37.1370   57.6390 C   0  0  0  0  0  2  0  0  0  0  0  0
    5.5670   36.2430   56.5020 C   0  0  0  0  0  2  0  0  0  0  0  0
    4.3010   35.5210   56.8780 C   0  0  0  0  0  2  0  0  0  0  0  0
    3.3120   35.4300   55.7950 C   0  0  0  0  0  0  0  0  0  0  0  0
    3.7070   34.9200   54.5770 C   0  0  0  0  0  3  0  0  0  0  0  0
    2.7860   34.8330   53.5650 C   0  0  0  0  0  3  0  0  0  0  0  0
    1.4880   35.2440   53.7510 C   0  0  0  0  0  0  0  0  0  0  0  0
    1.1100   35.7510   54.9740 C   0  0  0  0  0  0  0  0  0  0  0  0
    0.5260   35.1670   52.7420 C   0  0  0  0  0  2  0  0  0  0  0  0
    2.0350   35.8290   55.9640 N   0  0  0  0  0  0  0  0  0  0  0  0
   -0.1980   36.1670   55.1750 C   0  0  0  0  0  3  0  0  0  0  0  0
    1.7530   36.2050   56.8700 H   0  0  0  0  0  0  0  0  0  0  0  0
   -1.1440   36.0920   54.1800 C   0  0  0  0  0  3  0  0  0  0  0  0
   -0.7680   35.5860   52.9560 C   0  0  0  0  0  3  0  0  0  0  0  0
   10.1660   39.2300   60.3790 N   0  0  0  0  0  0  0  0  0  0  0  0
   10.7920   39.3680   61.1730 H   0  0  0  0  0  0  0  0  0  0  0  0
   10.4830   39.9340   59.1840 C   0  0  0  0  0  2  0  0  0  0  0  0
    9.5660   41.0990   59.0440 C   0  0  0  0  0  0  0  0  0  0  0  0
    9.3990   41.9730   57.9820 C   0  0  0  0  0  0  0  0  0  0  0  0
   10.2170   41.8170   56.7260 C   0  0  0  0  0  1  0  0  0  0  0  0
    8.4960   42.9010   58.1860 N   0  0  0  0  0  0  0  0  0  0  0  0
    7.8260   43.1030   59.1000 C   0  0  2  0  0  3  0  0  0  0  0  0
    8.3670   43.5480   57.4090 H   0  0  0  0  0  0  0  0  0  0  0  0
    6.7410   44.0200   59.6570 C   0  0  0  0  0  1  0  0  0  0  0  0
    8.4180   41.6850   60.2340 S   0  0  0  0  0  0  0  0  0  0  0  0
  1 26  1  6  0  0  0
  1  9  1  0  0  0  0
  2  5  1  0  0  0  0
  3  4  1  0  0  0  0
  3  2  1  0  0  0  0
  6 11  1  6  0  0  0
  6  3  1  0  0  0  0
  7  6  1  0  0  0  0
  7  1  1  0  0  0  0
  8  7  1  0  0  0  0
  9  2  2  0  0  0  0
  9 10  1  0  0  0  0
 12 11  1  0  0  0  0
 13 14  1  0  0  0  0
 13 12  1  0  0  0  0
 15 21  1  0  0  0  0
 15 14  1  0  0  0  0
 16 15  2  0  0  0  0
 17 18  2  0  0  0  0
 17 16  1  0  0  0  0
 18 19  1  0  0  0  0
 19 22  2  0  0  0  0
 19 21  1  0  0  0  0
 20 25  1  0  0  0  0
 20 18  1  0  0  0  0
 21 23  1  0  0  0  0
 24 22  1  0  0  0  0
 25 24  2  0  0  0  0
 26 27  1  0  0  0  0
 28 26  1  0  0  0  0
 29 28  1  0  0  0  0
 29 36  1  0  0  0  0
 30 32  1  0  0  0  0
 30 29  2  0  0  0  0
 31 30  1  0  0  0  0
 32 33  1  0  0  0  0
 33 35  1  1  0  0  0
 33 36  1  0  0  0  0
 34 32  1  0  0  0  0
M  END
>  <minimizedAffinity>
-9.38400459

>  <minimizedRMSD>
0.536647379

$$$$
