
 OpenBabel04082420063D

 35 35  0  0  1  0  0  0  0  0999 V2000
   39.5530   11.6240  -17.8310 N   0  0  0  0  0  0  0  0  0  0  0  0
   40.0250   12.4190  -18.2610 H   0  0  0  0  0  0  0  0  0  0  0  0
   39.0810   10.4150  -18.5810 C   0  0  1  0  0  3  0  0  0  0  0  0
   38.8490   10.8160  -19.9890 C   0  0  0  0  0  2  0  0  0  0  0  0
   38.7010    9.8470  -21.0740 C   0  0  0  0  0  3  0  0  0  0  0  0
   37.2950    9.4860  -21.3970 C   0  0  0  0  0  1  0  0  0  0  0  0
   39.3200   10.3500  -22.3910 C   0  0  0  0  0  1  0  0  0  0  0  0
   40.0520    9.3360  -18.3300 C   0  0  0  0  0  0  0  0  0  0  0  0
   39.8830    8.1320  -18.6350 O   0  0  0  0  0  0  0  0  0  0  0  0
   41.3110    9.6080  -17.6900 N   0  0  0  0  0  0  0  0  0  0  0  0
   41.4580   10.5080  -17.2350 H   0  0  0  0  0  0  0  0  0  0  0  0
   42.4020    8.6000  -17.6810 C   0  0  1  0  0  3  0  0  0  0  0  0
   43.0210    8.6980  -19.0200 C   0  0  0  0  0  2  0  0  0  0  0  0
   43.8420    7.5620  -19.5340 C   0  0  0  0  0  3  0  0  0  0  0  0
   42.9630    6.2870  -19.3170 C   0  0  0  0  0  1  0  0  0  0  0  0
   43.9960    7.6070  -21.0460 C   0  0  0  0  0  1  0  0  0  0  0  0
   43.2170    8.7470  -16.4920 C   0  0  0  0  0  0  0  0  0  0  0  0
   43.4900    9.8160  -15.8930 O   0  0  0  0  0  0  0  0  0  0  0  0
   43.8090    7.6070  -15.8710 O   0  0  0  0  0  1  0  0  0  0  0  0
   39.1960   11.5010  -16.1530 P   0  0  2  0  0  0  0  0  0  0  0  0
   38.9090   10.0580  -15.7310 O   0  0  0  0  0  1  0  0  0  0  0  0
   37.7400   12.3400  -15.7870 O   0  0  0  0  0  0  0  0  0  0  0  0
   40.4450   12.1710  -15.0560 C   0  0  0  0  0  2  0  0  0  0  0  0
   39.9080   13.0900  -14.0700 N   0  0  0  0  0  0  0  0  0  0  0  0
   40.8150   13.7250  -13.1460 C   0  0  0  0  0  0  0  0  0  0  0  0
   42.0360   13.4310  -13.1660 O   0  0  0  0  0  0  0  0  0  0  0  0
   38.9070   13.2850  -14.0320 H   0  0  0  0  0  0  0  0  0  0  0  0
   40.2670   14.6360  -12.2800 O   0  0  0  0  0  0  0  0  0  0  0  0
   40.7370   14.8260  -10.9850 C   0  0  0  0  0  2  0  0  0  0  0  0
   40.9500   16.2410  -10.6760 C   0  0  0  0  0  0  0  0  0  0  0  0
   40.2050   16.7520   -9.6020 C   0  0  0  0  0  3  0  0  0  0  0  0
   40.3620   18.0620   -9.2340 C   0  0  0  0  0  3  0  0  0  0  0  0
   41.2420   18.8660   -9.9130 C   0  0  0  0  0  3  0  0  0  0  0  0
   41.9880   18.3900  -10.9720 C   0  0  0  0  0  3  0  0  0  0  0  0
   41.8190   17.0770  -11.3260 C   0  0  0  0  0  3  0  0  0  0  0  0
  1 20  1  0  0  0  0
  2  1  1  0  0  0  0
  3  4  1  6  0  0  0
  3  8  1  0  0  0  0
  3  1  1  0  0  0  0
  5  4  1  0  0  0  0
  6  5  1  0  0  0  0
  7  5  1  0  0  0  0
  8 10  1  0  0  0  0
  9  8  2  0  0  0  0
 10 12  1  0  0  0  0
 10 11  1  0  0  0  0
 12 13  1  6  0  0  0
 12 17  1  0  0  0  0
 14 15  1  0  0  0  0
 14 13  1  0  0  0  0
 16 14  1  0  0  0  0
 17 18  2  0  0  0  0
 17 19  1  0  0  0  0
 20 22  2  1  0  0  0
 20 21  1  0  0  0  0
 20 23  1  0  0  0  0
 23 24  1  0  0  0  0
 24 27  1  0  0  0  0
 24 25  1  0  0  0  0
 25 28  1  0  0  0  0
 26 25  2  0  0  0  0
 28 29  1  0  0  0  0
 29 30  1  0  0  0  0
 30 31  1  0  0  0  0
 31 32  2  0  0  0  0
 33 32  1  0  0  0  0
 34 33  2  0  0  0  0
 35 34  1  0  0  0  0
 35 30  2  0  0  0  0
M  END
>  <minimizedAffinity>
-8.44234371

>  <minimizedRMSD>
0.561428547

$$$$
